/*--------------------------------*- C++ -*----------------------------------*\
  =========                 |
  \\      /  F ield         | OpenFOAM: Addition to OpenFOAM v6
   \\    /   O peration     | Website:  https://github.com/StasF1/dualFuelEngine
    \\  /    A nd           | Version:  0.2-alpha
     \\/     M anipulation  |
\*---------------------------------------------------------------------------*/
FoamFile
{
    version     2.0;
    format      ascii;
    class       volScalarField;
    location    "0";
    object      cellLevel;
}
// * * * * * * * * * * * * * * * * * * * * * * * * * * * * * * * * * * * * * //

dimensions      [0 0 0 0 0 0 0];

internalField   uniform 0;

boundaryField
{
    injectionXMinus
    {
        type            calculated;
        value           uniform 0;
    }
    injectionXPlus
    {
        type            calculated;
        value           uniform 0;
    }
    injectionYMinus
    {
        type            calculated;
        value           uniform 0;
    }
    injectionYPlus
    {
        type            calculated;
        value           uniform 0;
    }
    inletXMinus
    {
        type            calculated;
        value           uniform 0;
    }
    inletXPlus
    {
        type            calculated;
        value           uniform 0;
    }
    inletYMinus
    {
        type            calculated;
        value           uniform 0;
    }
    inletYPlus
    {
        type            calculated;
        value           uniform 0;
    }
    outlet
    {
        type            calculated;
        value           uniform 0;
    }
    valve
    {
        type            calculated;
        value           uniform 0;
    }
    walls
    {
        type            calculated;
        value           uniform 0;
    }
}


// ************************************************************************* //
