/*--------------------------------*- C++ -*----------------------------------*\
  =========                 |
  \\      /  F ield         | OpenFOAM: dualFuelEngline addition to OpenFOAM v7
   \\    /   O peration     | Website:  https://github.com/StasF1/dualFuelEngine
    \\  /    A nd           | Version:  0.4-alpha
     \\/     M anipulation  |
\*---------------------------------------------------------------------------*/
FoamFile
{
    version     2.0;
    format      ascii;
    class       dictionary;
    location    "system";
    object      controlDict;
}
// * * * * * * * * * * * * * * * * * * * * * * * * * * * * * * * * * * * * * //

/*
n = 92, RPM
EVO = 85, deg CA
deltaDeg = 1/6/n = 0.0018116, s
*/

application     multiCompressionFoam; // multiCompressionFoam \ dyMFoam

startFrom       startTime;

startTime       0;

stopAt          endTime;

endTime         0.48; // (EVO + 180)/6/n

deltaT          2e-5;

writeControl    adjustableRunTime;

writeInterval   1.81e-3; // 1.81e-3 (1 [deg CA]) | 9e-4 (0.5 [deg CA]) | 4.53e-4 (0.25 [deg CA])

purgeWrite      0;

writeFormat     ascii;

writePrecision  6;

writeCompression false;

timeFormat      general;

timePrecision   6;

runTimeModifiable true;

adjustTimeStep  true;

maxCo           0.1;

functions
{
    #includeFunc MachNo

    internalEnergy
    {
        type            writeObjects;
        libs            ("libutilityFunctionObjects.so");
        writeControl    writeTime;
        objects
        (
            e
        );
    }
    volAverageFieldValues
    {
        type            volFieldValue;
        libs            ("libfieldFunctionObjects.so");
        writeControl    timeStep;
        writeInterval   1;
        log             true;
        writeFields     false;
        operation       volAverage;
        fields
        (
            p T e rho alphaAir alphaGas alphaExh
        );
    }
}

// ************************************************************************* //
