/*--------------------------------*- C++ -*----------------------------------*\
  =========                 |
  \\      /  F ield         | OpenFOAM: Addition to OpenFOAM v6
   \\    /   O peration     | Website:  https://github.com/StasF1/dualFuelEngine
    \\  /    A nd           | Version:  0.3-alpha
     \\/     M anipulation  |
\*---------------------------------------------------------------------------*/
FoamFile
{
    version     2.0;
    format      ascii;
    class       dictionary;
    location    "constant";
    object      dynamicMeshDict;
}
// * * * * * * * * * * * * * * * * * * * * * * * * * * * * * * * * * * * * * //

dynamicFvMesh    dynamicInkJetFvMesh;

motionSolverLibs ("libfvMotionSolvers.so");

dynamicInkJetFvMeshCoeffs
{
    amplitude 0.5; // relative to size from the edge to reference plane
	
    frequency 500; // 1/2e-03 = 500
	
    refPlaneX 0; // reference plane
}

// ************************************************************************* //
