/*--------------------------------*- C++ -*----------------------------------*\
  =========                 |
  \\      /  F ield         | OpenFOAM: The Open Source CFD Toolbox
   \\    /   O peration     | Website:  https://openfoam.org
    \\  /    A nd           | Version:  6
     \\/     M anipulation  |
\*---------------------------------------------------------------------------*/
FoamFile
{
    version     2.0;
    format      ascii;
    class       extendedFeatureEdgeMesh;
    location    "constant/extendedFeatureEdgeMesh";
    object      inletXMinus.extendedFeatureEdgeMesh;
}
// * * * * * * * * * * * * * * * * * * * * * * * * * * * * * * * * * * * * * //

// points
8((0.5 -0.15 -1.75) (0.5 -0.4 -1.75) (0.5 -0.15 -1.55) (0.5 -0.4 -1.55) (0.5 0.4 -1.75) (0.5 0.15 -1.75) (0.5 0.4 -1.55) (0.5 0.15 -1.55))
// edges
10((1 2) (5 6) (0 1) (2 0) (1 3) (3 2) (4 5) (6 4) (5 7) (7 6))
// concaveStart mixedStart nonFeatureStart
0 0 8
// internalStart flatStart openStart multipleStart
0 0 2 10
// normals
4{(-1 0 0)}
// normal volume types

4
(
0
0
0
0
)

// normalDirections

10
(
2(1 -1)
2(1 -1)
1(1)
1(1)
1(1)
1(1)
1(1)
1(1)
1(1)
1(1)
)

// edgeNormals

10
(
2(0 1)
2(2 3)
1(0)
1(0)
1(1)
1(1)
1(2)
1(2)
1(3)
1(3)
)

// featurePointNormals

8
(
1(0)
1(0)
1(0)
1(1)
1(2)
1(2)
1(2)
1(3)
)

// featurePointEdges

8
(
2(2 3)
3(0 2 4)
3(0 3 5)
2(4 5)
2(6 7)
3(1 6 8)
3(1 7 9)
2(8 9)
)

// regionEdges
8(2 3 4 5 6 7 8 9)


// ************************************************************************* //
