/*--------------------------------*- C++ -*----------------------------------*\
  =========                 |
  \\      /  F ield         | OpenFOAM: The Open Source CFD Toolbox
   \\    /   O peration     | Website:  https://openfoam.org
    \\  /    A nd           | Version:  6
     \\/     M anipulation  |
\*---------------------------------------------------------------------------*/
FoamFile
{
    version     2.0;
    format      ascii;
    class       extendedFeatureEdgeMesh;
    location    "constant/extendedFeatureEdgeMesh";
    object      outlet.extendedFeatureEdgeMesh;
}
// * * * * * * * * * * * * * * * * * * * * * * * * * * * * * * * * * * * * * //

// points

20
(
(0.5 0.05 -0.05)
(0.5 -0.05 -0.05)
(0.5 0.05 0.05)
(0.5 -0.05 0.05)
(-0.05 0.5 -0.05)
(0.05 0.5 -0.05)
(-0.05 0.5 0.05)
(0.05 0.5 0.05)
(-0.5 -0.05 -0.05)
(-0.5 0.05 -0.05)
(-0.5 -0.05 0.05)
(-0.5 0.05 0.05)
(0.05 -0.5 -0.05)
(-0.05 -0.5 -0.05)
(0.05 -0.5 0.05)
(-0.05 -0.5 0.05)
(0.25 -0.25 2.91667)
(-0.25 -0.25 2.91667)
(0.25 0.25 2.91667)
(-0.25 0.25 2.91667)
)

// edges

25
(
(1 2)
(5 6)
(9 10)
(13 14)
(17 18)
(0 1)
(2 0)
(1 3)
(3 2)
(4 5)
(6 4)
(5 7)
(7 6)
(8 9)
(10 8)
(9 11)
(11 10)
(12 13)
(14 12)
(13 15)
(15 14)
(16 17)
(18 16)
(17 19)
(19 18)
)

// concaveStart mixedStart nonFeatureStart
0 0 20
// internalStart flatStart openStart multipleStart
0 0 5 25
// normals
10((-1 0 0) (-1 -0 0) (0 -1 0) (0 -1 0) (1 0 0) (1 -0 0) (0 1 -0) (0 1 0) (0 0 -1) (-0 0 -1))
// normal volume types

10
(
0
0
0
0
0
0
0
0
0
0
)

// normalDirections

25
(
2(1 -1)
2(1 -1)
2(1 -1)
2(1 -1)
2(1 -1)
1(1)
1(1)
1(1)
1(1)
1(1)
1(1)
1(1)
1(1)
1(1)
1(1)
1(1)
1(1)
1(1)
1(1)
1(1)
1(1)
1(1)
1(1)
1(1)
1(1)
)

// edgeNormals

25
(
2(0 1)
2(2 3)
2(4 5)
2(6 7)
2(8 9)
1(0)
1(0)
1(1)
1(1)
1(2)
1(2)
1(3)
1(3)
1(4)
1(4)
1(5)
1(5)
1(6)
1(6)
1(7)
1(7)
1(8)
1(8)
1(9)
1(9)
)

// featurePointNormals

20
(
1(0)
1(0)
1(0)
1(1)
1(2)
1(2)
1(2)
1(3)
1(4)
1(4)
1(4)
1(5)
1(6)
1(6)
1(6)
1(7)
1(8)
1(8)
1(8)
1(9)
)

// featurePointEdges

20
(
2(5 6)
3(0 5 7)
3(0 6 8)
2(7 8)
2(9 10)
3(1 9 11)
3(1 10 12)
2(11 12)
2(13 14)
3(2 13 15)
3(2 14 16)
2(15 16)
2(17 18)
3(3 17 19)
3(3 18 20)
2(19 20)
2(21 22)
3(4 21 23)
3(4 22 24)
2(23 24)
)

// regionEdges

20
(
5
6
7
8
9
10
11
12
13
14
15
16
17
18
19
20
21
22
23
24
)



// ************************************************************************* //
