/*--------------------------------*- C++ -*----------------------------------*\
  =========                 |
  \\      /  F ield         | OpenFOAM: The Open Source CFD Toolbox
   \\    /   O peration     | Website:  https://openfoam.org
    \\  /    A nd           | Version:  6
     \\/     M anipulation  |
\*---------------------------------------------------------------------------*/
FoamFile
{
    version     2.0;
    format      ascii;
    class       extendedFeatureEdgeMesh;
    location    "constant/extendedFeatureEdgeMesh";
    object      valve.extendedFeatureEdgeMesh;
}
// * * * * * * * * * * * * * * * * * * * * * * * * * * * * * * * * * * * * * //

// points
8((0.26 0.26 1.44) (0.26 0.26 1.5) (0.26 -0.26 1.44) (0.26 -0.26 1.5) (-0.26 -0.26 1.44) (-0.26 -0.26 1.5) (-0.26 0.26 1.44) (-0.26 0.26 1.5))
// edges

18
(
(0 1)
(2 0)
(3 2)
(1 3)
(4 2)
(5 4)
(3 5)
(6 4)
(7 6)
(5 7)
(0 6)
(7 1)
(1 2)
(3 4)
(5 6)
(7 0)
(4 0)
(7 3)
)

// concaveStart mixedStart nonFeatureStart
0 0 8
// internalStart flatStart openStart multipleStart
12 12 18 18
// normals

12
(
(1 0 -0)
(0 1 -0)
(0 0 1)
(1 0 0)
(0 -1 0)
(0 0 -1)
(0 -1 0)
(-1 0 0)
(0 0 -1)
(-0 0 1)
(-1 0 0)
(0 1 0)
)

// normal volume types

12
(
0
0
0
0
0
0
0
0
0
0
0
0
)

// normalDirections

18
(
2(1 -1)
2{1}
2(1 -1)
2{1}
2{1}
2(1 -1)
2{1}
2{1}
2(1 -1)
2{1}
2{1}
2{1}
2(1 -1)
2(1 -1)
2(1 -1)
2(1 -1)
2(1 -1)
2(1 -1)
)

// edgeNormals

18
(
2(0 1)
2(0 2)
2(3 4)
2(3 5)
2(4 2)
2(6 7)
2(6 8)
2(7 9)
2(10 11)
2(10 8)
2(11 9)
2(1 5)
2(0 3)
2(4 6)
2(7 10)
2(11 1)
2(9 2)
2(8 5)
)

// featurePointNormals

8
(
3(0 1 2)
3(0 1 5)
3(0 2 4)
3(3 4 5)
3(4 2 7)
3(6 7 8)
3(7 9 11)
3(10 11 8)
)

// featurePointEdges

8
(
5(0 15 10 16 1)
4(12 3 11 0)
4(12 2 4 1)
5(2 13 6 17 3)
5(13 5 7 16 4)
4(5 14 9 6)
4(14 8 10 7)
5(8 15 11 17 9)
)

// regionEdges
0()


// ************************************************************************* //
