/*--------------------------------*- C++ -*----------------------------------*\
  =========                 |
  \\      /  F ield         | OpenFOAM: The Open Source CFD Toolbox
   \\    /   O peration     | Website:  https://openfoam.org
    \\  /    A nd           | Version:  6
     \\/     M anipulation  |
\*---------------------------------------------------------------------------*/
FoamFile
{
    version     2.0;
    format      ascii;
    class       volScalarField;
    object      alphaGas;
}
// * * * * * * * * * * * * * * * * * * * * * * * * * * * * * * * * * * * * * //

dimensions      [0 0 0 0 0 0 0];

internalField   uniform 0;

injection	 	1;

boundaryField
{
    // Injection
	"injectionXMinus|injectionXPlus|injectionYMinus|injectionYPlus"
    {
        type            fixedValue;
        value           uniform 1;
    }

	// Inlet
	"inletXMinus|inletXPlus|inletYMinus|inletYPlus"
    {
        type            zeroGradient;
    }

	// Outlet
    outlet
    {
		type            zeroGradient;
    }
	
	// Walls
    "piston|valve|walls"
    {
        type            zeroGradient;
    }
}

// ************************************************************************* //
