/*--------------------------------*- C++ -*----------------------------------*\
  =========                 |
  \\      /  F ield         | OpenFOAM: Addition to OpenFOAM v6
   \\    /   O peration     | Website:  https://github.com/StasF1/dualFuelEngine
    \\  /    A nd           | Version:  0.3-alpha
     \\/     M anipulation  |
\*---------------------------------------------------------------------------*/
FoamFile
{
    version     2.0;
    format      ascii;
    class       volScalarField;
    object      rho;
}
// * * * * * * * * * * * * * * * * * * * * * * * * * * * * * * * * * * * * * //

dimensions				[1 -3 0 0 0 0 0]; // kg/m^3

internalField   		uniform 1.204; // 11e05/287.3/1400 = 2.73482173934662622445

boundaryField
{
    // Injection
	"injectionXMinus|injectionXPlus|injectionYMinus|injectionYPlus"
    {
        // type            fixedValue;
		type			codedFixedValue;
		value           uniform 1.787; // 25e04/287.3/380 = 2.28992250902229468554
		redirectType	rhoBCsCoordination;
		code
		#{
			// Set gas constant from thethermophysicalProperties
			scalar R = 287.3;
		
			// Get density & temperature fields
			const fvPatchScalarField& p = patch().lookupPatchField<volScalarField, scalar>("p");
			const fvPatchField& T = patch().lookupPatchField<volScalarField, scalar>("T");
			
			operator ==
			(
				p/R/T
			);
		#};
    }
	
    // Inlet
	"inletXMinus|inletXPlus|inletYMinus|inletYPlus"
    {
        // type            fixedValue;
		type			codedFixedValue;
		value           uniform 1.787; // 101325*3.8/287.3/315 = 4.25455389256294233669
		redirectType	rhoBCsCoordination;
		code
		#{
			// Set gas constant from thethermophysicalProperties
			scalar R = 287.3;
		
			// Get density & temperature fields
			const fvPatchScalarField& p = patch().lookupPatchField<volScalarField, scalar>("p");
			const fvPatchField& T = patch().lookupPatchField<volScalarField, scalar>("T");
			
			operator ==
			(
				p/R/T
			);
		#};
		
    }
	
	// Outlet
    outlet
    {
		type            fixedValue;
        value           uniform 1.203; // 101325/287.3/293.15 = 1.20307052807286267678
    }
	
	// Walls
    "piston|valve|walls"
    {
        type            zeroGradient;
    }
}


// ************************************************************************* //
