/*--------------------------------*- C++ -*----------------------------------*\
  =========                 |
  \\      /  F ield         | OpenFOAM: Addition to OpenFOAM v6
   \\    /   O peration     | Website:  https://github.com/StasF1/dualFuelEngine
    \\  /    A nd           | Version:  0.3-alpha
     \\/     M anipulation  |
\*---------------------------------------------------------------------------*/
FoamFile
{
    version     2.0;
    format      ascii;
    class       volScalarField;
    object      rho;
}
// * * * * * * * * * * * * * * * * * * * * * * * * * * * * * * * * * * * * * //

dimensions              [1 -3 0 0 0 0 0]; // kg/m^3

internalField           uniform 1.160; // 1.160*287.3*293.15 = 97697.5142

boundaryField
{
    // Injection
    "injectionXMinus|injectionXPlus|injectionYMinus|injectionYPlus"
    {
        type            codedFixedValue;
        value           uniform 1.508; // 25e04/287.3/380 = 2.28992250902229468554
        redirectType    rho;
        code
        #{
            #include "../../constant/transportProperties.H"
            #include "../../../../../solvers/utilities/codedFixedValueBC/rho.C"
        #};
    }
    
    // Inlet
    "inletXMinus|inletXPlus|inletYMinus|inletYPlus"
    {
        $injectionXMinus
    }
    
    // Outlet
    outlet
    {
        type            zeroGradient;
    }
    
    // Walls
    "piston|valve|walls"
    {
        type            zeroGradient;
    }
}

// ************************************************************************* //
