/*--------------------------------*- C++ -*----------------------------------*\
  =========                 |
  \\      /  F ield         | OpenFOAM: Addition to OpenFOAM v6
   \\    /   O peration     | Website:  https://github.com/StasF1/dualFuelEngine
    \\  /    A nd           | Version:  0.3-alpha
     \\/     M anipulation  |
\*---------------------------------------------------------------------------*/
FoamFile
{
    version     2.0;
    format      ascii;
    class       volScalarField;
    object      T;
}
// * * * * * * * * * * * * * * * * * * * * * * * * * * * * * * * * * * * * * //

dimensions      		[0 0 0 1 0 0 0]; // K

internalField   		uniform 293.15; //1400;

boundaryField
{
    // Injection
	"injectionXMinus|injectionXPlus|injectionYMinus|injectionYPlus"
    {
        // type            fixedValue;
		type            codedFixedValue;
		value        	uniform 293.15; //380;
		redirectType	TBCsCoordination;
		code
		#{
			// Stagnation temperature
			scalar TStagn = 292.5; //380;

			// Set gas constants from the thermophysicalProperties
			scalar R = 287.3;
			scalar GAMMA = 1.4;

			// Get velocity field U
			const fvPatchVectorField& U = patch().lookupPatchField<volVectorField, vector>("U");

			scalar criticalSqrVelocity = 2*GAMMA/(GAMMA - 1)*R*TStagn;
			
			operator ==
			(
				TStagn*( 1 - (GAMMA - 1)/(GAMMA + 1)*magSqr(U)/criticalSqrVelocity )
			);
		#};
    }

	// Inlet
	"inletXMinus|inletXPlus|inletYMinus|inletYPlus"
    {
        // type            fixedValue;
		type            codedFixedValue;
		value 	        uniform 293.15; //380;
		redirectType	TBCsCoordination;
		code
		#{
			// Stagnation temperature
			scalar TStagn = 292.5; //380;

			// Set gas constants from the thermophysicalProperties
			scalar R = 287.3;
			scalar GAMMA = 1.4;

			// Get velocity field U
			const fvPatchVectorField& U = patch().lookupPatchField<volVectorField, vector>("U");

			scalar criticalSqrVelocity = 2*GAMMA/(GAMMA - 1)*R*TStagn;
			
			operator ==
			(
				TStagn*( 1 - (GAMMA - 1)/(GAMMA + 1)*magSqr(U)/criticalSqrVelocity )
			);
		#};
    }

	// Outlet
    outlet
    {
		type            fixedValue;
		value 	        uniform 293.15;
    }
	
	// Walls
    "piston|valve|walls"
    {
        type            zeroGradient;
    }
}

// ************************************************************************* //