/*--------------------------------*- C++ -*----------------------------------*\
  =========                 |
  \\      /  F ield         | OpenFOAM: Addition to OpenFOAM v6
   \\    /   O peration     | Website:  https://github.com/StasF1/dualFuelEngine
    \\  /    A nd           | Version:  0.3-alpha
     \\/     M anipulation  |
\*---------------------------------------------------------------------------*/
FoamFile
{
    version     2.0;
    format      ascii;
    class       volScalarField;
    object      alphaAir;
}
// * * * * * * * * * * * * * * * * * * * * * * * * * * * * * * * * * * * * * //

dimensions      [0 0 0 0 0 0 0];

internalField   uniform 0;

boundaryField
{
    // Injection
    "injection(X|Y)(Minus|Plus)"
    {
        type    zeroGradient;
    }

    // Inlet
    "inlet(X|Y)(Minus|Plus)"
    {
        type    fixedValue;
        value   uniform 1;
    }

    // Outlet
    outlet
    {
        type    zeroGradient;
    }

    // Walls
    "piston|valve|walls"
    {
        type    zeroGradient;
    }
}

// ************************************************************************* //
