/*--------------------------------*- C++ -*----------------------------------*\
  =========                 |
  \\      /  F ield         | OpenFOAM: dualFuelEngine addition to OpenFOAM v8
   \\    /   O peration     | Website:  https://github.com/StasF1/dualFuelEngine
    \\  /    A nd           | Version:  0.5.x-alpha
     \\/     M anipulation  |
\*---------------------------------------------------------------------------*/
FoamFile
{
    version     2.0;
    format      ascii;
    class       dictionary;
    location    "system";
    object      controlDict;
}
// * * * * * * * * * * * * * * * * * * * * * * * * * * * * * * * * * * * * * //

application     rhoPimpleFoam;

startFrom       startTime;

startTime       0;

stopAt          endTime;

endTime         0.65;

deltaT          2e-5;

writeControl    adjustableRunTime;

writeInterval   0.005;

purgeWrite      0;

writeFormat     ascii;

writePrecision  6;

writeCompression false;

timeFormat      general;

timePrecision   6;

runTimeModifiable true;

adjustTimeStep  true;

maxCo           0.1;

functions
{
    #includeFunc CourantNo

    #includeFunc MachNo
    #includeFunc writeObjects(e, K)
    #includeFunc add(e, K)
    #includeFunc cellMin(p,T,Ma,rho,e)
    #includeFunc cellMax(p,T,Ma,rho,e)

    volFieldValue(operation=volIntegrate,rho)
    {
        type            volFieldValue;
        libs            ("libfieldFunctionObjects.so");
        writeControl    timeStep;
        writeInterval   1;
        log             true;
        writeFields     false;
        regionType      all;
        operation       volIntegrate;
        fields           (rho);
    }

    #includeFunc writeCellVolumes
    readFields(V)
    {
        type            readFields;
        libs            ("libfieldFunctionObjects.so");
        writeControl    outputTime;
        fields           (V);
    }
    volFieldValue(operation=sum,V)
    {
        type            volFieldValue;
        libs            ("libfieldFunctionObjects.so");
        writeControl    outputTime;
        log             true;
        writeFields     false;
        regionType      all;
        operation       sum;
        fields           (V);
    }

    volFieldValue(operation=volAverage)
    {
        type            volFieldValue;
        libs            ("libfieldFunctionObjects.so");
        writeControl    outputTime;
        log             true;
        writeFields     false;
        regionType      all;
        operation       volAverage;
        fields
        (
            p T rho e K
        );
    }
}


// ************************************************************************* //
