/*--------------------------------*- C++ -*----------------------------------*\
  =========                 |
  \\      /  F ield         | OpenFOAM: Addition to OpenFOAM v6
   \\    /   O peration     | Website:  https://github.com/StasF1/dualFuelEngine
    \\  /    A nd           | Version:  0.3-alpha
     \\/     M anipulation  |
\*---------------------------------------------------------------------------*/
FoamFile
{
    version     2.0;
    format      ascii;
    class       dictionary;
    object      blockMeshDict;
}
// * * * * * * * * * * * * * * * * * * * * * * * * * * * * * * * * * * * * * //
// General m4 macros

















// ########################################################################## //
// USER EDITABLE PART

convertToMeters 0.001;

 // cylinder radial size

 // cylinder axial size

 // valve plate diameter

 // relative to S & D

 // radial direction cells number (10)

 // radial direction cells number axial (100)

// END OF (NORMAL) USER EDITABLE PART
// ########################################################################## //









// * * * * * * * * * * * * * * * * * * * * * * * * * * * * * * * * * * * * * //
    
vertices
(
    // Inner bottom
    /*00*/ (153.371 0 0) // Vertex cylIn0Down = 0 
    /*01*/ (0 -153.371 0) // Vertex cylIn1Down = 1 
    /*02*/ (-153.371 0 0) // Vertex cylIn2Down = 2 
    /*03*/ (0 153.371 0) // Vertex cylIn3Down = 3 
    
    // Outer of piston
    /*04*/ (500 0 0) // Vertex cylOut0Down = 4 
    /*05*/ (0 -500 0) // Vertex cylOut1Down = 5 
    /*06*/ (-500 0 0) // Vertex cylOut2Down = 6 
    /*07*/ (0 500 0) // Vertex cylOut3Down = 7 
    
    // Upper inner cylinder
    /*08*/ (153.371 0 5000) // Vertex cylIn0Up = 8 
    /*09*/ (0 -153.371 5000) // Vertex cylIn1Up = 9 
    /*10*/ (-153.371 0 5000) // Vertex cylIn2Up = 10 
    /*11*/ (0 153.371 5000) // Vertex cylIn3Up = 11 
    
    // Upper of cylinder
    /*12*/ (500 0 5000) // Vertex cylOut0Up = 12 
    /*13*/ (0 -500 5000) // Vertex cylOut1Up = 13 
    /*14*/ (-500 0 5000) // Vertex cylOut2Up = 14 
    /*15*/ (0 500 5000) // Vertex cylOut3Up = 15 
);

blocks
(
    // Inner cylinder block (8 9 10 11 0 1 2 3)
    hex (8 9 10 11 0 1 2 3) /*block 0*/
    (7 7 60)
    simpleGrading (1 1 1)
        
    // 1st quarter of cylinder (8 12 13 9 0 4 5 1)
    hex (8 12 13 9 0 4 5 1) /*block 1*/
    (7 7 60)
    simpleGrading (1 1 1)

    // 2nd quarter of cylinder (9 13 14 10 1 5 6 2)
    hex (9 13 14 10 1 5 6 2) /*block 2*/
    (7 7 60)
    simpleGrading (1 1 1)

    // 3rd quarter of cylinder (10 14 15 11 2 6 7 3)
    hex (10 14 15 11 2 6 7 3) /*block 3*/
    (7 7 60)
    simpleGrading (1 1 1)

    // 4th quarter of cylinder (11 15 12 8 3 7 4 0)
    hex (11 15 12 8 3 7 4 0) /*block 4*/
    (7 7 60)
    simpleGrading (1 1 1)
);

edges
(
    // Bottom of cylinder
    arc 4 5 (353.55339091057 -353.55339091057 0)
    arc 5 6 (-353.55339091057 -353.55339091057 0)
    arc 6 7 (-353.55339091057 353.55339091057 0)
    arc 7 4 (353.55339091057 353.55339091057 0)
        
    // Inner of piston (comment to make inner block as prism)
    arc 0 1 (108.44967423469 -108.44967423469 0)
    arc 1 2 (-108.44967423469 -108.44967423469 0)
    arc 2 3 (-108.44967423469 108.44967423469 0)
    arc 3 0 (108.44967423469 108.44967423469 0)
    
    // Upper of upper wall
    arc 12 13 (353.55339091057 -353.55339091057 5000)
    arc 13 14 (-353.55339091057 -353.55339091057 5000)
    arc 14 15 (-353.55339091057 353.55339091057 5000)
    arc 15 12 (353.55339091057 353.55339091057 5000)
        
    // Inner of upper wall (comment to make inner block as prism)
    arc 8 9 (108.44967423469 -108.44967423469 5000)
    arc 9 10 (-108.44967423469 -108.44967423469 5000)
    arc 10 11 (-108.44967423469 108.44967423469 5000)
    arc 11 8 (108.44967423469 108.44967423469 5000)
);

boundary
(

);

// ************************************************************************* //
