/*--------------------------------*- C++ -*----------------------------------*\
  =========                 |
  \\      /  F ield         | OpenFOAM: dualFuelEngine addition to OpenFOAM v8
   \\    /   O peration     | Website:  https://github.com/StasF1/dualFuelEngine
    \\  /    A nd           | Version:  0.5.x-alpha
     \\/     M anipulation  |
\*---------------------------------------------------------------------------*/
FoamFile
{
    version     2.0;
    format      ascii;
    class       volScalarField;
    object      p;
}
// * * * * * * * * * * * * * * * * * * * * * * * * * * * * * * * * * * * * * //

dimensions      [1 -1 -2 0 0 0 0];

internalField   uniform 1e+05;

boundaryField
{
/* Inlet */
    "injection|inlet"
    {
        type            zeroGradient;
    }

/* Outlet */
    outlet
    {
        type            fixedValue;
        value           uniform 0.23e+06;
    }

/* Walls */
    "piston|valve(Head|Stem)|walls"
    {
        type            zeroGradient;
    }

/* ACMI & cyclic patches */
    #includeEtc "caseDicts/setConstraintTypes"

    "(inner|outer)ACMI(1|2)_blockage"
    {
        type            zeroGradient;
    }
    "(inner|outer)ACMI(1|2)_couple"
    {
        type            cyclicACMI;
        value           $internalField;
    }
}

// ************************************************************************* //
