/*--------------------------------*- C++ -*----------------------------------*\
  =========                 |
  \\      /  F ield         | OpenFOAM: dualFuelEngine addition to OpenFOAM v8
   \\    /   O peration     | Website:  https://github.com/StasF1/dualFuelEngine
    \\  /    A nd           | Version:  0.5.x-alpha
     \\/     M anipulation  |
\*---------------------------------------------------------------------------*/
FoamFile
{
    version     2.0;
    format      ascii;
    class       pointVectorField;
    location    "0";
    object      pointMotionU;
}
// * * * * * * * * * * * * * * * * * * * * * * * * * * * * * * * * * * * * * //

dimensions      [0 1 0 0 0 0 0];

internalField   uniform (0 0 0);

boundaryField
{
    "(injection|inlet|(injection|inlet)_(topAndBottom|front|back)|outlet|cyl_top)"
    {
        type            uniformFixedValue;
        uniformValue    (0 0 0);
    }

    "axis|cyl_(front|back)|ACMI2_couple|ACMI2_blockage)"
    {
        type            fixedNormalSlip;
        n               (0 0 0);
    }

    piston
    {
        type            oscillatingDisplacement;
        amplitude       (0 7 0);
        omega           1; // 1/2/0.5
        value           uniform (0 0 0);
    }
}

// ************************************************************************* //