/*--------------------------------*- C++ -*----------------------------------*\
  =========                 |
  \\      /  F ield         | OpenFOAM: dualFuelEngline addition to OpenFOAM v7
   \\    /   O peration     | Website:  https://github.com/StasF1/dualFuelEngine
    \\  /    A nd           | Version:  0.4-alpha
     \\/     M anipulation  |
\*---------------------------------------------------------------------------*/
FoamFile
{
    version     2.0;
    format      ascii;
    class       volVectorField;
    object      U;
}
// * * * * * * * * * * * * * * * * * * * * * * * * * * * * * * * * * * * * * //

#include        "../constant/engineProperties"

injValue        0.3; // Maximum injection mass flow rate [kg/m^3]

injDelay        20; // Injection delay after EVC [˚CA]

injDuration     30; // Injection duration [˚CA]

injLinearRamp   8; // Maximum injection mass flow rate reaching time [˚CA]

injReverseRamp  8; // Min injection mass flow rate reaching time [˚CA]

dimensions      [0 1 -1 0 0 0 0];

internalField   uniform (0 0 0);

injStart        #calc "($EVO + $EVC + $injDelay)*$deltaTCA";

injLinearRampT  #calc "$injStart + $injLinearRamp*$deltaTCA";

injReverseRampT #calc "$injLinearRampT + ($injDuration - $injLinearRamp - $injReverseRamp)*$deltaTCA";

injFinish       #calc "$injReverseRampT + $injReverseRamp*$deltaTCA";

boundaryField
{
/* Inlet */
    injection
    {
        type            flowRateInletVelocity;
        massFlowRate    table
        (
            ($injStart        0.1    )   /*    •────•     ├─ injValue */
            ($injLinearRampT  $injValue) /*   /      \    │           */
            ($injReverseRampT $injValue) /*  /        \   │           */
            ($injFinish       0.1    )   /* •          •  0           */
        );
    }
    inlet
    {
        type            flowRateInletVelocity;
        // massFlowRate
        // {
        //     type             tableFile;
        //     format           csv;
        //     nHeaderLine      1;
        //     refColumn        0;
        //     componentColumns (1);
        //     mergeSeparators  no;
        //     file             "0/include/massFlowRate.csv";
        // }
        massFlowRate    table
        (
            (0.083          0.5)
            (0.12           2.1)
            (0.23           0.5)
        );
    }

/* Outlet */
    outlet
    {
        type            pressureInletOutletVelocity;
        value           uniform (0 0 0);
    }

/* Walls */
    "piston|valveHead"
    {
        type            movingWallVelocity;
        value           $internalField;
    }
    "valveStem|walls"
    {
        type            slip;
    }

/* ACMI & cyclic patches */
    #includeEtc "caseDicts/setConstraintTypes"

    "(inner|outer)ACMI(1|2)_blockage"
    {
        type            slip;
    }
    "(inner|outer)ACMI(1|2)_couple"
    {
        type            cyclicACMI;
        value           uniform (0 0 0);
    }
}

// ************************************************************************* //
