/*--------------------------------*- C++ -*----------------------------------*\
  =========                 |
  \\      /  F ield         | OpenFOAM: Addition to OpenFOAM v6
   \\    /   O peration     | Website:  https://github.com/StasF1/dualFuelEngine
    \\  /    A nd           | Version:  0.3-alpha
     \\/     M anipulation  |
\*---------------------------------------------------------------------------*/
FoamFile
{
    version     2.0;
    format      ascii;
    class       volScalarField;
    object      rho;
}
// * * * * * * * * * * * * * * * * * * * * * * * * * * * * * * * * * * * * * //

dimensions      [1 -1 -2 0 0 0 0];

internalField   uniform 1e+06;

boundaryField
{
    injection
    {
        type            zeroGradient;
    }
    inlet
    {
        $injection
    }
    outlet
    {
        type            fixedValue;
        value           uniform 0.23e+06;
    }
    piston
    {
        type            zeroGradient;
    }
    "(cyl|injection|inlet)_(front|back)"
    {   /* Sides */
        type            zeroGradient; // wedge;
    }
    "cyl_top|(injection|inlet)_topAndBottom"
    {   /* Other walls */
        type            zeroGradient;
    }
    "ACMI(1|2)_couple"
    {
        type            cyclicACMI;
        value           $internalField;
    }
    "ACMI(1|2)_blockage"
    {
        type    zeroGradient;
    }
}

// ************************************************************************* //
