/*--------------------------------*- C++ -*----------------------------------*\
  =========                 |
  \\      /  F ield         | OpenFOAM: The Open Source CFD Toolbox
   \\    /   O peration     | Website:  https://openfoam.org
    \\  /    A nd           | Version:  6
     \\/     M anipulation  |
\*---------------------------------------------------------------------------*/
FoamFile
{
    version     2.0;
    format      ascii;
    class       volScalarField;
    object      T;
}
// * * * * * * * * * * * * * * * * * * * * * * * * * * * * * * * * * * * * * //

dimensions      [0 0 0 1 0 0 0]; // K

internalField   uniform 0;

boundaryField
{
    // Injection
	injectionXMinus
    {
        type            fixedValue;
        value           uniform 2;
    }
	injectionXPlus
    {
        type            fixedValue;
        value           uniform 2;
    }
	injectionYMinus
    {
        type            fixedValue;
        value           uniform 2;
    }
	injectionYPlus
    {
        type            fixedValue;
        value           uniform 2;
    }

	// Inlet
	inletXMinus
    {
        type            fixedValue;
        value           uniform 1;
    }
	inletXPlus
    {
        type            fixedValue;
        value           uniform 1;
    }
	inletYMinus
    {
        type            fixedValue;
        value           uniform 1;
    }
	inletYPlus
    {
        type            fixedValue;
        value           uniform 1;
    }

	// Other
    outlet
    {
        type            zeroGradient;
    } // outlet
    valve
    {
        type            zeroGradient;
    } // valve
    walls
    {
        type            zeroGradient;
    } // walls
}

// ************************************************************************* //
