/*--------------------------------*- C++ -*----------------------------------*\
  =========                 |
  \\      /  F ield         | OpenFOAM: The Open Source CFD Toolbox
   \\    /   O peration     | Website:  https://openfoam.org
    \\  /    A nd           | Version:  6
     \\/     M anipulation  |
\*---------------------------------------------------------------------------*/
FoamFile
{
    version     2.0;
    format      ascii;
    class       volScalarField;
    object      T;
}
// * * * * * * * * * * * * * * * * * * * * * * * * * * * * * * * * * * * * * //

dimensions      [0 0 0 1 0 0 0]; // K

internalField   uniform 858.1;

injection	 	400;

inlet	 		293.15;

boundaryField
{
    // Injection
	injectionXMinus
    {
        type            uniformFixedValue;
        uniformValue 	uniform $injection;
    }
	injectionXPlus
    {
        type            uniformFixedValue;
        uniformValue 	uniform $injection;
    }
	injectionYMinus
    {
        type            uniformFixedValue;
        uniformValue 	uniform $injection;
    }
	injectionYPlus
    {
        type            uniformFixedValue;
        uniformValue 	uniform $injection;
    }

	// Inlet
	inletXMinus
    {
        type            uniformFixedValue;
        uniformValue 	uniform $inlet;
    }
	inletXPlus
    {
        type            uniformFixedValue;
        uniformValue 	uniform $inlet;
    }
	inletYMinus
    {
        type            uniformFixedValue;
        uniformValue 	uniform $inlet;
    }
	inletYPlus
    {
        type            uniformFixedValue;
        uniformValue 	uniform $inlet;
    }

	// Other
    outlet
    {
        type            zeroGradient;
    } // outlet
    valve
    {
        type            zeroGradient;
    } // valve
    walls
    {
        type            zeroGradient;
    } // walls
}

// ************************************************************************* //