/*--------------------------------*- C++ -*----------------------------------*\
  =========                 |
  \\      /  F ield         | OpenFOAM: The Open Source CFD Toolbox
   \\    /   O peration     | Website:  https://openfoam.org
    \\  /    A nd           | Version:  6
     \\/     M anipulation  |
\*---------------------------------------------------------------------------*/
FoamFile
{
    version     2.0;
    format      ascii;
    class       volVectorField;
    object      U;
}
// * * * * * * * * * * * * * * * * * * * * * * * * * * * * * * * * * * * * * //

dimensions      [0 1 -1 0 0 0 0]; // [kg m s K kg-mol cd]

internalField   uniform (0 0 0);

injection 		10;

inlet 			10;

injectionMinus  #calc "-1.0*$injection";

inletMinus		#calc "-1.0*$inlet";
	
boundaryField
{
    // Injection
	injectionXMinus
    {
		type            uniformFixedValue;
		uniformValue    constant ($injectionMinus 0 0);
    }
	injectionXPlus
    {
        // type            uniformFixedValue;
        // uniformValue    constant ($injection 0 0);
		type            noSlip;
    }
	injectionYMinus
    {
        // type            uniformFixedValue;
        // uniformValue    constant (0 $injectionMinus 0);
		type            noSlip;
    }
	injectionYPlus
    {
        // type            uniformFixedValue;
        // uniformValue    constant (0 $injection 0);
		type            noSlip;
    }

	// Inlet
	inletXMinus
    {
        // type            uniformFixedValue;
        // uniformValue    constant ($inletMinus 0 0);
		type            noSlip;
	}
	inletXPlus
    {
        // type            uniformFixedValue;
        // uniformValue    constant ($inlet 0 0);
		type            noSlip;
    }
	inletYMinus
    {
        // type            uniformFixedValue;
        // uniformValue    constant (0 $inletMinus 0);
		type            noSlip;
    }
	inletYPlus
    {
        // type            uniformFixedValue;
        // uniformValue    constant (0 $inlet 0);
		type            noSlip;
    }

	// Other
    outlet
    {
        type            zeroGradient;
    } // outlet
    valve
    {
        type            noSlip;
    } // valve
    walls
    {
        type            noSlip;
    } // walls
}

// ************************************************************************* //
