/*--------------------------------*- C++ -*----------------------------------*\
  =========                 |
  \\      /  F ield         | OpenFOAM: dualFuelEngline addition to OpenFOAM v7
   \\    /   O peration     | Website:  https://github.com/StasF1/dualFuelEngine
    \\  /    A nd           | Version:  0.4-alpha
     \\/     M anipulation  |
\*---------------------------------------------------------------------------*/
FoamFile
{
    version     2.0;
    format      ascii;
    class       dictionary;
    object      blockMeshDict;
}
// * * * * * * * * * * * * * * * * * * * * * * * * * * * * * * * * * * * * * //

convertToMeters 0.01;

//These vertices define the block below. It envelopes the stl files. The block can be even bigger than the stl files
//Watch out if the stl files are created in mm or m!

vertices
(
    ( -125 -125 -180 )
    ( -125 125 -180 )
    ( -125 125 320 )
    ( -125 -125 320 )
    ( 125 -125 -180 )
    ( 125 125 -180 )
    ( 125 125 320 )
    ( 125 -125 320 )
                
);

blocks
( 
    hex (0 1 2 3 4 5 6 7) (25 50 25) simpleGrading (1 1 1) // scale 10:1, original - (2500 5000 2500) (100 200 100)
);

edges
(
);

boundary
(
    allBoundary //Don't worry about these settings
    {
        type patch;
        faces
        (
            (3 7 6 2)
            (0 4 7 3)
            (2 6 5 1)
            (1 5 4 0)
            (0 3 2 1)
            (4 5 6 7)
        );
    }
);

// ************************************************************************* //