/*--------------------------------*- C++ -*----------------------------------*\
  =========                 |
  \\      /  F ield         | OpenFOAM: dualFuelEngline addition to OpenFOAM v7
   \\    /   O peration     | Website:  https://github.com/StasF1/dualFuelEngine
    \\  /    A nd           | Version:  0.3-alpha
     \\/     M anipulation  |
\*---------------------------------------------------------------------------*/
FoamFile
{
    version     2.0;
    format      ascii;
    class       dictionary;
    location    "constant";
    object      dynamicMeshDict;
}
// * * * * * * * * * * * * * * * * * * * * * * * * * * * * * * * * * * * * * //

dynamicFvMesh   dynamicMotionSolverFvMesh;

motionSolverLibs ("libfvMotionSolvers.so");

motionSolver    displacementLaplacian;

diffusivity     uniform;

// ************************************************************************* //

// dynamicFvMesh   dynamicMotionSolverFvMesh;
//
// motionSolverLibs ("libfvMotionSolvers.so");
//
// motionSolver    solidBody;
//
// solidBodyCoeffs
// {
//     cellZone        cylinder;
//
//     solidBodyMotionFunction  oscillatingLinearMotion;
//
//     amplitude       (0 1 0);
//     omega           5; // rad/s  (.5 rps)
// }

// ************************************************************************* //

// dynamicFvMesh   dynamicMotionSolverFvMesh;
//
// motionSolver    displacementLinearMotion;
//
// displacementLinearMotionCoeffs
// {
//
//     cellZone        cylinder;
//
//     axis            (0 1 0);
//     xFixed          6;
//     xMoving         0;
//     displacement    table
//     (
//         (0 0)
//         (0.5 5)
//     );
// }

// ************************************************************************* //
