/*--------------------------------*- C++ -*----------------------------------*\
  =========                 |
  \\      /  F ield         | OpenFOAM: dualFuelEngline addition to OpenFOAM v7
   \\    /   O peration     | Website:  https://github.com/StasF1/dualFuelEngine
    \\  /    A nd           | Version:  0.4-alpha
     \\/     M anipulation  |
\*---------------------------------------------------------------------------*/
FoamFile
{
    version     2.0;
    format      ascii;
    class       dictionary;
    object      blockMeshDict;
}
// * * * * * * * * * * * * * * * * * * * * * * * * * * * * * * * * * * * * * //

convertToMeters 0.01;

vertices
(
    /*00*/ ( -125 -125 -180 )
    /*01*/ ( -125  125 -180 )
    /*02*/ ( -125  125  320 )
    /*03*/ ( -125 -125  320 )
    /*04*/ (  125 -125 -180 )
    /*05*/ (  125  125 -180 )
    /*06*/ (  125  125  320 )
    /*07*/ (  125 -125  320 )
);

blocks
( 
    hex (0 1 2 3 4 5 6 7) (25 50 25) simpleGrading (1 1 1) // scale 10:1, original - (2500 5000 2500) (100 200 100)
);

edges
(
);

boundary
(
);

// ************************************************************************* //
