/*--------------------------------*- C++ -*----------------------------------*\
  =========                 |
  \\      /  F ield         | OpenFOAM: dualFuelEngline addition to OpenFOAM v7
   \\    /   O peration     | Website:  https://github.com/StasF1/dualFuelEngine
    \\  /    A nd           | Version:  0.4-alpha
     \\/     M anipulation  |
\*---------------------------------------------------------------------------*/
FoamFile
{
    version     2.0;
    format      ascii;
    class       dictionary;
    location    "system";
    object      controlDict;
}
// * * * * * * * * * * * * * * * * * * * * * * * * * * * * * * * * * * * * * //

application     multiCompressionFoam;

startFrom       startTime;

startTime       0;

stopAt          endTime;

endTime         0.25;

deltaT          0.001;

writeControl    adjustableRunTime;

writeInterval   $deltaT;

purgeWrite      0;

writeFormat     ascii;

writePrecision  6;

writeCompression false;

timeFormat      general;

timePrecision   6;

runTimeModifiable true;

adjustTimeStep  true;

maxCo           0.5;

functions
{
    #includeFunc MachNo
    #includeFunc CourantNo
    #includeFunc writeObjects(e, K)

    totalEnergy
    {
        type            add;
        libs            ("libfieldFunctionObjects.so");
        executeControl  writeTime;
        writeControl    writeTime;
        fields          (e K);
    }

    volAverageFieldValues
    {
        type            volFieldValue;
        libs            ("libfieldFunctionObjects.so");
        executeControl  writeTime;
        writeControl    writeTime;
        log             true;
        writeFields     false;
        operation       volAverage;
        fields
        (
            p T rho e K alphaAir alphaExh alphaGas
        );
    }
}


// ************************************************************************* //
