/*--------------------------------*- C++ -*----------------------------------*\
  =========                 |
  \\      /  F ield         | OpenFOAM: Addition to OpenFOAM v6
   \\    /   O peration     | Website:  https://github.com/StasF1/dualFuelEngine
    \\  /    A nd           | Version:  0.3-alpha
     \\/     M anipulation  |
\*---------------------------------------------------------------------------*/
FoamFile
{
    version     2.0;
    format      ascii;
    class       dictionary;
    location    "system";
    object      controlDict;
}
// * * * * * * * * * * * * * * * * * * * * * * * * * * * * * * * * * * * * * //

application         multiCompression;

startFrom           startTime;

startTime           0;

stopAt              endTime;

endTime             0.5;

deltaT              1e-05;

writeControl        timeStep;

writeInterval       25; // 5e-06*25 = .000125

purgeWrite          0;

writeFormat         ascii;

writePrecision      6;

writeCompression     on;

timeFormat          general;

timePrecision       6;

runTimeModifiable    true;

// ************************************************************************* //
