/*--------------------------------*- C++ -*----------------------------------*\
| =========                 |                                                 |
| \\      /  F ield         | OpenFOAM: The Open Source CFD Toolbox           |
|  \\    /   O peration     | Version:  5.0                                   |
|   \\  /    A nd           | Web:      www.OpenFOAM.org                      |
|    \\/     M anipulation  |                                                 |
\*---------------------------------------------------------------------------*/
FoamFile
{
    version     2.0;
    format      ascii;
    class       dictionary;
    object      blockMeshDict;
}
// * * * * * * * * * * * * * * * * * * * * * * * * * * * * * * * * * * * * * //

convertToMeters 0.01;

//These vertices define the block below. It envelopes the stl files. The block can be even bigger than the stl files
//Watch out if the stl files are created in mm or m!

vertices
(
    /*00*/ (-30 -0.5 -0.5)
    /*01*/ (30 -0.5 -0.5)
    /*02*/ (30 0.5 -0.5)
    /*03*/ (-30 0.5 -0.5)
    /*04*/ (-30 -0.5 0.5)
    /*05*/ (30 -0.5 0.5)
    /*06*/ (30 0.5 0.5)
    /*07*/ (-30 0.5 0.5)
);

blocks
( 
    hex (0 1 2 3 4 5 6 7) (60 1 1) simpleGrading (1 1 1)
);

edges();

boundary
(
    walls
    {
        type patch;
        faces
        (
            (0 1 5 4)
            (1 2 6 5)
            (2 3 7 6)
            (0 1 2 3)
            (4 5 6 7)
        );
    }

    movingWall
    {
        type patch;
        faces
        (
            (3 0 4 7)
        );
    }
);

// ************************************************************************* //
