/*--------------------------------*- C++ -*----------------------------------*\
  =========                 |
  \\      /  F ield         | OpenFOAM: dualFuelEngine addition to OpenFOAM v8
   \\    /   O peration     | Website:  https://github.com/StasF1/dualFuelEngine
    \\  /    A nd           | Version:  0.5.x-alpha
     \\/     M anipulation  |
\*---------------------------------------------------------------------------*/
FoamFile
{
    version     2.0;
    format      ascii;
    class       volScalarField;
    object      alphaGas;
}
// * * * * * * * * * * * * * * * * * * * * * * * * * * * * * * * * * * * * * //

dimensions      [0 0 0 0 0 0 0];

internalField   uniform 0;

boundaryField
{
/* Inlet */
    "injection(X|Y)(m|p)"
    {
        type            fixedValue;
        value           uniform 1;
    }
    "inlet(X|Y)(m|p)"
    {
        type            zeroGradient;
    }

/* Outlet */
    outlet
    {
        type            inletOutlet;
        inletValue      uniform 0;
        value           $inletValue;
    }

/* Walls */
    "piston|valve(Head|Stem)|walls"
    {
        type            zeroGradient;
    }

/* ACMI patches */
    "(inner|outer)ACMI(1|2)_blockage"
    {
        type            zeroGradient;
    }
    "(inner|outer)ACMI(1|2)_couple"
    {
        type            cyclicACMI;
        value           $internalField;
    }
}

// ************************************************************************* //
