/*--------------------------------*- C++ -*----------------------------------*\
  =========                 |
  \\      /  F ield         | OpenFOAM: dualFuelEngline addition to OpenFOAM v7
   \\    /   O peration     | Website:  https://github.com/StasF1/dualFuelEngine
    \\  /    A nd           | Version:  0.4-alpha
     \\/     M anipulation  |
\*---------------------------------------------------------------------------*/
FoamFile
{
    version     2.0;
    format      ascii;
    class       volScalarField;
    object      T;
}
// * * * * * * * * * * * * * * * * * * * * * * * * * * * * * * * * * * * * * //

dimensions      [0 0 0 1 0 0 0];

internalField   uniform 380; // 850

boundaryField
{
/* Inlet */
    "(injection|inlet)(X|Y)(m|p)"
    {
        type            fixedValue;
        value           uniform 332; // 332
    }

/* Outlet */
    outlet
    {
        type            inletOutlet;
        inletValue      uniform 350; // 764
        value           $inletValue;
    }

/* Walls */
    "piston|valve(Head|Stem)|walls"
    {
        type            zeroGradient;
    }

/* ACMI patches */
    "(inner|outer)ACMI(1|2)_blockage"
    {
        type            zeroGradient;
    }
    "(inner|outer)ACMI(1|2)_couple"
    {
        type            cyclicACMI;
        value           $internalField;
    }
}

// ************************************************************************* //
