/*--------------------------------*- C++ -*----------------------------------*\
  =========                 |
  \\      /  F ield         | OpenFOAM: dualFuelEngline addition to OpenFOAM v7
   \\    /   O peration     | Website:  https://github.com/StasF1/dualFuelEngine
    \\  /    A nd           | Version:  0.3-alpha
     \\/     M anipulation  |
\*---------------------------------------------------------------------------*/
FoamFile
{
    version     2.0;
    format      ascii;
    class       dictionary;
    location    "constant";
    object      transportProperties;
}
// * * * * * * * * * * * * * * * * * * * * * * * * * * * * * * * * * * * * * //

DT              DT [0 2 -1 0 0 0 0] 0.01; // m^2/s

DAir            DAir [0 2 -1 0 0 0 0] 0.01; // m^2/s

DGas            DGas [0 2 -1 0 0 0 0] 0.01; // m^2/s

MU              MU [1 -1 -1 0 0 0 0] 1e-02;

LAMBDA          LAMBDA [1 1 -3 -1 0 0 0] 2e-02; // [kg·m/s^3/K = W/m/K]
                                                // coefficient of thermal
                                                // conductivity

R                R [0 2 -2 -1 0 0 0] 287.3; // [m^2/s^2/K = J/kg/K], gas constant

Cv                Cv [0 2 -2 -1 0 0 0] 718.25; // isobaric heat capacity

// ************************************************************************* //
