/*--------------------------------*- C++ -*----------------------------------*\
  =========                 |
  \\      /  F ield         | OpenFOAM: Addition to OpenFOAM v6
   \\    /   O peration     | Website:  https://github.com/StasF1/dualFuelEngine
    \\  /    A nd           | Version:  0.4-alpha
     \\/     M anipulation  |
\*---------------------------------------------------------------------------*/
FoamFile
{
    version     2.0;
    format      ascii;
    class       dictionary;
    location    "system";
    object      controlDict;
}
// * * * * * * * * * * * * * * * * * * * * * * * * * * * * * * * * * * * * * //

application     rhoPimpleFoam; // dyMFoam \ rhoPimpleFoam

startFrom       startTime;

startTime       0;

stopAt          endTime;

endTime         0.48;

deltaT          0.0009;

writeControl    adjustableRunTime;

writeInterval   0.0018;

purgeWrite      0;

writeFormat     ascii;

writePrecision  6;

writeCompression false;

timeFormat      general;

timePrecision   6;

runTimeModifiable true;

adjustTimeStep  true;

maxCo           0.5;

functions
{
    #includeFunc MachNo

    internalEnergy
    {
        type            writeObjects;
        libs            ("libutilityFunctionObjects.so");
        writeControl    writeTime;
        objects
        (
            e
        );
    }
    volAverageFieldValues
    {
        type            volFieldValue;
        libs            ("libfieldFunctionObjects.so");
        writeControl    timeStep;
        writeInterval   1;
        log             true;
        writeFields     false;
        operation       volAverage;
        fields
        (
            p T e rho alphaAir alphaGas alphaExh
        );
    }
}


// ************************************************************************* //
