/*--------------------------------*- C++ -*----------------------------------*\
  =========                 |
  \\      /  F ield         | OpenFOAM: Addition to OpenFOAM v6
   \\    /   O peration     | Website:  https://github.com/StasF1/dualFuelEngine
    \\  /    A nd           | Version:  0.3-alpha
     \\/     M anipulation  |
\*---------------------------------------------------------------------------*/
FoamFile
{
    version     2.0;
    format      ascii;
    class       dictionary;
    object      blockMeshDict;
}
// * * * * * * * * * * * * * * * * * * * * * * * * * * * * * * * * * * * * * //

convertToMeters 0.001;

vertices
(
    /*   3------2   00 */ (400 -9    0)
    /*  /|     /|   01 */ (350 -7    0)
    /* 7------6 |   02 */ (350 -7  200)
    /* | |    | |   03 */ (400 -9  200)
    /* | |    | |   04 */ (400  9    0)
    /* | 0----|-1   05 */ (350  7    0)
    /* |/     |/    06 */ (350  7  200)
    /* 4------5     07 */ (400  9  200)

    /*   11------10 08 */ (350 -7  -40)
    /*   /|     /|  09 */ (150 -3  -40)
    /* 15------14|  10 */ (150 -3 3400)
    /*  | |    | |  11 */ (350 -7 3400) // 3280 = chamfer 120 mm
    /*  | |    | |  12 */ (350  7  -40)
    /*  | 8----|-9  13 */ (150  3  -40)
    /*  |/     |/   14 */ (150  3 3400)
    /* 12------13   15 */ (350  7 3400) // 3280 = chamfer 120 mm

    /*   19---18    16 */ (150 -3  -40)
    /*    \  /|     17 */ (  0  0  -40)
    /*    |\/ |     18 */ (  0  0 3400)
    /*    |21 |     19 */ (150 -3 3400)
    /*    ||  |     20 */ (150  3  -40)
    /*   16|-17     21 */ (150  3 3400)
    /*    \| /         */
    /*     |/          */
    /*     20          */
);

blocks
(
    hex (0   1  2  3  4  5  6  7) ( 5  10 1) simpleGrading (1 1 1)
    hex (8   9 10 11 12 13 14 15) (10 170 1) simpleGrading (1 1 1)
    hex (16 17 18 19 20 17 18 21) ( 7 170 1) simpleGrading (1 1 1)
);

edges
(
);

boundary
(
    // Inlet channel block
    inlet
    {
        type patch;
        faces
        (
            (0 4 7 3)
        );
    }
    channelFront
    {
        type wedge;
        faces
        (
            (0 1 2 3)
        );
    }
    channelBack
    {
        type wedge;
        faces
        (
            (4 5 6 7)
        );
    }
    channelTopAndBottom
    {
        type wall;
        faces
        (
            (0 1 4 5)
            (3 2 6 7)
        );
    }

    // Piston block
    axis
    {
        type patch;
        faces
        (
            (17 18 18 17)
        );
    }
    cylTop
    {
        type patch;
        faces
        (
            (11 15 14 10)
        );
    }
    outlet
    {
        type patch;
        faces
        (
            (19 21 18 18)
        );
    }
    piston // = cylBottom
    {
        type wall;
        faces
        (
            ( 9 13 12  8)
            (16 20 17 17)
        );
    }
    cylBack
    {
        type wedge;
        faces
        (
            ( 8  9 10 11)
            (16 17 18 19)
        );
    }
    cylFront
    {
        type wedge;
        faces
        (
            (12 13 14 15)
            (20 17 18 21)
        );
    }

    // ACMI couple
    couple1 /* inlet channel */
    {
        type patch;
        faces
        (
            (2 6 5 1)
        );
    }
    couple2  /* cylinder */
    {
        type patch;
        faces
        (
            (8 12 15 11)
        );
    }
);

mergePatchPairs
(
);

// ************************************************************************* //
