/*--------------------------------*- C++ -*----------------------------------*\
  =========                 |
  \\      /  F ield         | OpenFOAM: dualFuelEngline addition to OpenFOAM v7
   \\    /   O peration     | Website:  https://github.com/StasF1/dualFuelEngine
    \\  /    A nd           | Version:  0.4-alpha
     \\/     M anipulation  |
\*---------------------------------------------------------------------------*/
FoamFile
{
    version     2.0;
    format      ascii;
    class       dictionary;
    object      blockMeshDict;
}
// * * * * * * * * * * * * * * * * * * * * * * * * * * * * * * * * * * * * * //

convertToMeters 0.001;

vertices
(
    /*   3------2   00 */ (400 -9    0)
    /*  /|     /|   01 */ (350 -7    0)
    /* 7------6 |   02 */ (350 -7  200)
    /* | |    | |   03 */ (400 -9  200)
    /* | |    | |   04 */ (400  9    0)
    /* | 0----|-1   05 */ (350  7    0)
    /* |/     |/    06 */ (350  7  200)
    /* 4------5     07 */ (400  9  200)

    /*   11------10 08 */ (350 -7  930)
    /*   /|     /|  09 */ (150 -3  930)
    /* 15------14|  10 */ (150 -3 3400)
    /*  | |    | |  11 */ (350 -7 3280) // 3280 = chamfer 120 mm
    /*  | |    | |  12 */ (350  7  930)
    /*  | 8----|-9  13 */ (150  3  930)
    /*  |/     |/   14 */ (150  3 3400)
    /* 12------13   15 */ (350  7 3280) // 3280 = chamfer 120 mm

    /*      10      16 */ (  0  0  930)
    /*     /|\      17 */ (  0  0 3400)
    /*    / | \        */
    /*   14----17      */
    /*   |  |  |       */
    /*   |  9  |       */
    /*   | / \ |       */
    /*   |/   \|       */
    /*   13---16       */

    /*   21------20 18 */ (400 -9 1480)
    /*   /|     /|  19 */ (350 -7 1480)
    /* 25------24|  20 */ (350 -7 1500)
    /*  | |    | |  21 */ (400 -9 1500)
    /*  | |    | |  22 */ (400  9 1480)
    /*  |18----|-19 23 */ (350  7 1480)
    /*  |/     |/   24 */ (350  7 1500)
    /* 22------23   25 */ (400  9 1500)
);

blocks
(
    hex (0   1  2  3  4  5  6  7) ( 5  10 1) simpleGrading (1 1 1)
    hex (8   9 10 11 12 13 14 15) (10 170 1) simpleGrading (1 1 1)
    hex (9  16 17 10 13 16 17 14) ( 7 170 1) simpleGrading (1 1 1)
    hex (18 19 20 21 22 23 24 25) ( 5   1 1) simpleGrading (1 1 1)
);

edges
(
);

boundary
(
    // Inlet channel //
    inlet
    {
        type patch;
        faces
        (
            (0 4 7 3)
        );
    }
    inlet_front
    {
        type wall; //wedge;
        faces
        (
            (0 1 2 3)
        );
    }
    inlet_back
    {
        type wall; //wedge;
        faces
        (
            (4 5 6 7)
        );
    }
    inlet_topAndBottom
    {
        type wall;
        faces
        (
            (0 1 4 5)
            (3 2 6 7)
        );
    }

    // Injection channel //
    injection
    {
        type patch;
        faces
        (
            (18 22 25 21)
        );
    }
    injection_front
    {
        type wall; //wedge;
        faces
        (
            (18 19 20 21)
        );
    }
    injection_back
    {
        type wall; //wedge;
        faces
        (
            (22 23 24 25)
        );
    }
    injection_topAndBottom
    {
        type wall;
        faces
        (
            (18 19 23 22)
            (21 20 24 25)
        );
    }

    // Cylinder //
    axis
    {
        type patch;
        faces
        (
            (16 17 17 16)
        );
    }
    cyl_top
    {
        type patch;
        faces
        (
            (11 15 14 10)
        );
    }
    outlet
    {
        type patch;
        faces
        (
            (10 14 17 17)
            // (11 15 14 10) //! cylTop
        );
    }
    piston // = cylBottom
    {
        type wall;
        faces
        (
            (9 13 12  8)
            (9 13 16 16)
        );
    }
    cyl_back
    {
        type wall; //wedge;
        faces
        (
            (8  9 10 11)
            (9 16 17 10)
        );
    }
    cyl_front
    {
        type wall; //wedge;
        faces
        (
            (12 13 14 15)
            (13 16 17 14)
        );
    }

    // ACMIs //
    couple1 /* inlet & injection channel outlets */
    {
        type patch;
        faces
        (
            ( 2  6  5  1)
            (20 24 23 19)
        );
    }
    couple2  /* cylinder inlet */
    {
        type patch;
        faces
        (
            (8 12 15 11)
        );
    }
);

mergePatchPairs
(
);

// ************************************************************************* //
