/*--------------------------------*- C++ -*----------------------------------*\
  =========                 |
  \\      /  F ield         | OpenFOAM: Addition to OpenFOAM v6
   \\    /   O peration     | Website:  https://github.com/StasF1/dualFuelEngine
    \\  /    A nd           | Version:  0.3-alpha
     \\/     M anipulation  |
\*---------------------------------------------------------------------------*/
FoamFile
{
    version     2.0;
    format      ascii;
    class       dictionary;
    object      blockMeshDict;
}
// * * * * * * * * * * * * * * * * * * * * * * * * * * * * * * * * * * * * * //

convertToMeters 0.001;

vertices
(
    /*   3------2   00 */ (400 -9    0)
    /*  /|     /|   01 */ (350 -7    0)
    /* 7------6 |   02 */ (350 -7  200)
    /* | |    | |   03 */ (400 -9  200)
    /* | |    | |   04 */ (400  9    0)
    /* | 0----|-1   05 */ (350  7    0)
    /* |/     |/    06 */ (350  7  200)
    /* 4------5     07 */ (400  9  200)

    /*   11------10 08 */ (350 -7  -40)
    /*   /|     /|  09 */ (150 -3  -40)
    /* 15------14|  10 */ (150 -3 3400)
    /*  | |    | |  11 */ (350 -7 3400) // 3280 = chamfer 120 mm
    /*  | |    | |  12 */ (350  7  -40)
    /*  | 8----|-9  13 */ (150  3  -40)
    /*  |/     |/   14 */ (150  3 3400)
    /* 12------13   15 */ (350  7 3400) // 3280 = chamfer 120 mm

    /*      19      16 */ (150 -3  -40)
    /*     /|\      17 */ (  0  0  -40)
    /*    / | \     18 */ (  0  0 3400)
    /*   21----18   19 */ (150 -3 3400)
    /*   |  |  |    20 */ (150  3  -40)
    /*   | 16  |    21 */ (150  3 3400)
    /*   | / \ |       */
    /*   |/   \|       */
    /*   20---17       */

    /*   25------24 22 */ (400 -9 1480)
    /*   /|     /|  23 */ (350 -7 1480)
    /* 29------28|  24 */ (350 -7 1500)
    /*  | |    | |  25 */ (400 -9 1500)
    /*  | |    | |  26 */ (400  9 1480)
    /*  |22----|-23 27 */ (350  7 1480)
    /*  |/     |/   28 */ (350  7 1500)
    /* 26------27   29 */ (400  9 1500)
);

blocks
(
    hex (0   1  2  3  4  5  6  7) ( 5  10 1) simpleGrading (1 1 1)
    hex (8   9 10 11 12 13 14 15) (10 170 1) simpleGrading (1 1 1)
    hex (16 17 18 19 20 17 18 21) ( 7 170 1) simpleGrading (1 1 1)
    hex (22 23 24 25 26 27 28 29) ( 5   1 1) simpleGrading (1 1 1)
);

edges
(
);

boundary
(
    // Inlet channel //
    inlet
    {
        type patch;
        faces
        (
            (0 4 7 3)
        );
    }
    inlet_front
    {
        type wedge; // wall;
        faces
        (
            (0 1 2 3)
        );
    }
    inlet_back
    {
        type wedge; // wall;
        faces
        (
            (4 5 6 7)
        );
    }
    inlet_topAndBottom
    {
        type wall;
        faces
        (
            (0 1 4 5)
            (3 2 6 7)
        );
    }

    // Injection channel //
    injection
    {
        type patch;
        faces
        (
            (22 26 29 25)
        );
    }
    injection_front
    {
        type wedge; // wall;
        faces
        (
            (22 23 24 25)
        );
    }
    injection_back
    {
        type wedge; // wall;
        faces
        (
            (26 27 28 29)
        );
    }
    injection_topAndBottom
    {
        type wall;
        faces
        (
            (22 23 27 26)
            (25 24 28 29)
        );
    }

    // Cylinder //
    axis
    {
        type patch;
        faces
        (
            (17 18 18 17)
        );
    }
    cyl_top
    {
        type patch;
        faces
        (
            (11 15 14 10)
        );
    }
    outlet
    {
        type patch;
        faces
        (
            (19 21 18 18)
        );
    }
    piston // = cylBottom
    {
        type wall;
        faces
        (
            ( 9 13 12  8)
            (16 20 17 17)
        );
    }
    cyl_back
    {
        type wedge; // wall;
        faces
        (
            ( 8  9 10 11)
            (16 17 18 19)
        );
    }
    cyl_front
    {
        type wedge; // wall;
        faces
        (
            (12 13 14 15)
            (20 17 18 21)
        );
    }

    // ACMIs //
    couple1 /* inlet & injection channel outlets */
    {
        type patch;
        faces
        (
            (2 6 5 1)
            (24 28 27 23)
        );
    }
    couple2  /* cylinder inlet */
    {
        type patch;
        faces
        (
            (8 12 15 11)
        );
    }
);

mergePatchPairs
(
);

// ************************************************************************* //
