/*--------------------------------*- C++ -*----------------------------------*\
  =========                 |
  \\      /  F ield         | OpenFOAM: Addition to OpenFOAM v6
   \\    /   O peration     | Website:  https://github.com/StasF1/dualFuelEngine
    \\  /    A nd           | Version:  0.3-alpha
     \\/     M anipulation  |
\*---------------------------------------------------------------------------*/
FoamFile
{
    version     2.0;
    format      ascii;
    class       dictionary;
    object      blockMeshDict;
}
// * * * * * * * * * * * * * * * * * * * * * * * * * * * * * * * * * * * * * //

convertToMeters 0.001;

vertices
(
    /*   7-------6   00 */ (400  0    0)
    /*  /|      /|   01 */ (350  0    0)
    /* 3-------2 |   02 */ (350  0  200)
    /* | |     | |   03 */ (400  0  200)
    /* | |     | |   04 */ (400 10    0)
    /* | 4-----|-5   05 */ (350 10    0)
    /* |/      |/    06 */ (350 10  200)
    /* 0-------1     07 */ (400 10  200)

    /*   15-------14 08 */ (350  0  -20)
    /*   /|      /|  09 */ (150  0  -20)
    /* 11-------10|  10 */ (150  0 3400)
    /*  | |     | |  11 */ (350  0 3400) // 3280 = chamfer 120 mm
    /*  | |     | |  12 */ (350 10  -20)
    /*  |12-----|-13 13 */ (150 10  -20)
    /*  |/      |/   14 */ (150 10 3400)
    /*  8-------9    15 */ (350 10 3400) // 3280 = chamfer 120 mm

    /*   23-------22 16 */ (150  0  -20)
    /*   /|      /|  17 */ (  0  0  -20)
    /* 19-------18|  18 */ (  0  0 3400)
    /*  | |     | |  19 */ (150  0 3400)
    /*  | |     | |  20 */ (150 10  -20)
    /*  |20-----|-21 21 */ (  0 10  -20)
    /*  |/      |/   22 */ (  0 10 3400)
    /* 16-------17   23 */ (150 10 3400)
);

blocks
(
    hex (0   1  2  3  4  5  6  7) ( 5  10 1) simpleGrading (1 1 1)
    hex (8   9 10 11 12 13 14 15) (10 170 1) simpleGrading (1 1 1)
    hex (16 17 18 19 20 21 22 23) ( 7 170 1) simpleGrading (1 1 1)
);

edges
(
);

boundary
(
    // Inlet channel block
    inlet
    {
        type patch;
        faces
        (
            (0 4 7 3)
        );
    }
    channelFront
    {
        type wall; // wedge;
        faces
        (
            (0 1 2 3)
        );
    }
    channelBack
    {
        type wall; // wedge;
        faces
        (
            (4 5 6 7)
        );
    }
    channelTopAndBottom
    {
        type wall;
        faces
        (
            (0 1 4 5)
            (3 2 6 7)
        );
    }


    // Piston block
    cylTop
    {
        type patch;
        faces
        (
            (11 15 14 10)
        );
    }
    outlet
    {
        type patch;
        faces
        (
            (19 18 22 23)
        );
    }
    piston // = cylBottom
    {
        type wall;
        faces
        (
            ( 9 13 12  8)
            (16 17 21 20)
        );
    }
    cylBack
    {
        type wall; // wedge;
        faces
        (
            ( 8  9 10 11)
            (16 17 18 19)
        );
    }
    cylFront
    {
        type wall; // wedge;
        faces
        (
            (12 13 14 15)
            (20 21 22 23)
        );
    }
    axis
    {
        type patch;
        faces
        (
            (17 21 22 18)
        );
    }

    // ACMI couple
    couple1 /* inlet channel */
    {
        type patch;
        faces
        (
            (2 6 5 1)
        );
    }
    couple2  /* cylinder */
    {
        type patch;
        faces
        (
            (8 12 15 11)
        );
    }
);

mergePatchPairs
(
);

// ************************************************************************* //
