/*--------------------------------*- C++ -*----------------------------------*\
  =========                 |
  \\      /  F ield         | OpenFOAM: Addition to OpenFOAM v6
   \\    /   O peration     | Website:  https://github.com/StasF1/dualFuelEngine
    \\  /    A nd           | Version:  0.3-alpha
     \\/     M anipulation  |
\*---------------------------------------------------------------------------*/
FoamFile
{
    version     2.0;
    format      ascii;
    class       pointScalarField;
    object      pointMotionU;
}
// * * * * * * * * * * * * * * * * * * * * * * * * * * * * * * * * * * * * * //

dimensions      [0 1 -1 0 0 0 0];

internalField   uniform 0;

boundaryField
{
    "(inlet|outlet|channelFront|channelBack|channelTopAndBottom)"
    {
        type            uniformFixedValue;
        uniformValue    constant 0;
    }

    "(cylFront|cylBack|axis|ACMI1_couple|ACMI1_blockage|ACMI2_couple|ACMI2_blockage)"
    {
        type            slip;
    }

    piston
    {
        type            uniformFixedValue;
        uniformValue    constant 5;
    }
}

// ************************************************************************* //