/*--------------------------------*- C++ -*----------------------------------*\
  =========                 |
  \\      /  F ield         | OpenFOAM: The Open Source CFD Toolbox
   \\    /   O peration     | Website:  https://openfoam.org
    \\  /    A nd           | Version:  6
     \\/     M anipulation  |
\*---------------------------------------------------------------------------*/
FoamFile
{
    version     2.0;
    format      ascii;
    class       polyBoundaryMesh;
    location    "constant/polyMesh";
    object      boundary;
}
// * * * * * * * * * * * * * * * * * * * * * * * * * * * * * * * * * * * * * //

7
(
    inletXMinus
    {
        type            wall;
        inGroups        1(wall);
        nFaces          12;
        startFace       8239;
    }
    inletXPlus
    {
        type            wall;
        inGroups        1(wall);
        nFaces          12;
        startFace       8251;
    }
    inletYMinus
    {
        type            wall;
        inGroups        1(wall);
        nFaces          12;
        startFace       8263;
    }
    inletYPlus
    {
        type            wall;
        inGroups        1(wall);
        nFaces          12;
        startFace       8275;
    }
    outlet
    {
        type            wall;
        inGroups        1(wall);
        nFaces          33;
        startFace       8287;
    }
    valve
    {
        type            wall;
        inGroups        1(wall);
        nFaces          70;
        startFace       8320;
    }
    walls
    {
        type            wall;
        inGroups        1(wall);
        nFaces          1545;
        startFace       8390;
    }
)

// ************************************************************************* //
