/*--------------------------------*- C++ -*----------------------------------*\
  =========                 |
  \\      /  F ield         | OpenFOAM: dualFuelEngline addition to OpenFOAM v7
   \\    /   O peration     | Website:  https://github.com/StasF1/dualFuelEngine
    \\  /    A nd           | Version:  0.4-alpha
     \\/     M anipulation  |
\*---------------------------------------------------------------------------*/
FoamFile
{
    version     2.0;
    format      ascii;
    class       pointVectorField;
    location    "0";
    object      pointMotionU;
}
// * * * * * * * * * * * * * * * * * * * * * * * * * * * * * * * * * * * * * //

dimensions      [0 1 0 0 0 0 0];

internalField   uniform (0 0 0);

boundaryField
{
    inlet
    {
        type            oscillatingDisplacement;
        amplitude       (0.8 0 0);
        omega           1; // 1/2/0.5
        value           uniform (0 0 0);
    }

    outlet
    {
        type            uniformFixedValue;
        uniformValue    (0 0 0);
    }

    ".*" // walls
    {
        type            fixedNormalSlip;
        n               (0 0 0);
    }
}

// ************************************************************************* //