/*--------------------------------*- C++ -*----------------------------------*\
  =========                 |
  \\      /  F ield         | OpenFOAM: dualFuelEngine addition to OpenFOAM v8
   \\    /   O peration     | Website:  https://github.com/StasF1/dualFuelEngine
    \\  /    A nd           | Version:  0.5.x-alpha
     \\/     M anipulation  |
\*---------------------------------------------------------------------------*/
FoamFile
{
    version     2.0;
    format      ascii;
    class       volScalarField;
    object      p;
}
// * * * * * * * * * * * * * * * * * * * * * * * * * * * * * * * * * * * * * //

dimensions      [1 -1 -2 0 0 0 0];

internalField   uniform 1.442e+06;

boundaryField
{
/* Injection */
    "injection(X|Y)(Minus|Plus)"
    {
        type            zeroGradient;
    }

/* Inlet */
    "inlet(X|Y)(Minus|Plus)"
    {
        $injectionXMinus
    }

/* Outlet */
    outlet
    {
        type            fixedValue;
        value           uniform 0.23e+06;
    }

/* Walls */
    "piston|valve|walls"
    {
        type            zeroGradient;
    }
}

// ************************************************************************* //
