/*--------------------------------*- C++ -*----------------------------------*\
  =========                 |
  \\      /  F ield         | OpenFOAM: dualFuelEngine addition to OpenFOAM v8
   \\    /   O peration     | Website:  https://github.com/StasF1/dualFuelEngine
    \\  /    A nd           | Version:  0.5.x-alpha
     \\/     M anipulation  |
\*---------------------------------------------------------------------------*/
FoamFile
{
    version     2.0;
    format      ascii;
    class       volVectorField;
    object      U;
}
// * * * * * * * * * * * * * * * * * * * * * * * * * * * * * * * * * * * * * //

inj             100; // injection velocity magnitude

inl             30; // inlet velocity components

dimensions      [0 1 -1 0 0 0 0];

internalField   uniform (0 0 0);

boundaryField
{
/* Injection */
    injectionXMinus
    {
        type            fixedValue;
        value           uniform (#neg $inj  0  0);
    }
    injectionXPlus
    {
        type            fixedValue;
        value           uniform ($inj  0  0);
    }
    injectionYMinus
    {
        type            fixedValue;
        value           uniform (0  #neg $inj  0);

    }
    injectionYPlus
    {
        type            fixedValue;
        value           uniform (0  $inj  0);
    }

/* Inlet */
    inletXMinus
    {
        type            fixedValue;
        value           uniform (#neg $inl  $inl  $inl);
    }
    inletXPlus
    {
        type            fixedValue;
        value           uniform ($inl  #neg $inl  $inl);
    }
    inletYMinus
    {
        type            fixedValue;
        value           uniform (#neg $inl  #neg $inl  $inl);
    }
    inletYPlus
    {
        type            fixedValue;
        value           uniform ($inl  $inl  $inl);
    }

/* Outlet */
    outlet
    {
        type            pressureInletOutletVelocity;
        value           uniform (0 0 0);
    }
    
/* Walls */
    "injection(X|Y)(Minus|Plus)|piston|valve|walls"
    {
        type            slip;
    }

}

// ************************************************************************* //
