/*--------------------------------*- C++ -*----------------------------------*\
  =========                 |
  \\      /  F ield         | OpenFOAM: The Open Source CFD Toolbox
   \\    /   O peration     | Website:  https://openfoam.org
    \\  /    A nd           | Version:  dev
     \\/     M anipulation  |
\*---------------------------------------------------------------------------*/
FoamFile
{
    version     2.0;
    format      ascii;
    class       surfaceScalarField;
    location    "0";
    object      phi;
}
// * * * * * * * * * * * * * * * * * * * * * * * * * * * * * * * * * * * * * //

dimensions      [1 0 -1 0 0 0 0];

internalField   uniform 0;

boundaryField
{
    inletXm
    {
        type            calculated;
        value           uniform 0;
    }
    inletXp
    {
        type            calculated;
        value           uniform 0;
    }
    inletYm
    {
        type            calculated;
        value           uniform 0;
    }
    inletYp
    {
        type            calculated;
        value           uniform 0;
    }
    injectionXm
    {
        type            calculated;
        value           uniform 0;
    }
    injectionXp
    {
        type            calculated;
        value           uniform 0;
    }
    outlet
    {
        type            calculated;
        value           uniform 0;
    }
    walls
    {
        type            calculated;
        value           uniform 0;
    }
    piston
    {
        type            calculated;
        value           uniform 0;
    }
    valveHead
    {
        type            calculated;
        value           uniform 0;
    }
    valveStem
    {
        type            calculated;
        value           uniform 0;
    }
    innerACMI1_couple
    {
        type            cyclicACMI;
        value           uniform 0;
    }
    innerACMI1_blockage
    {
        type            calculated;
        value           uniform 0;
    }
    innerACMI2_couple
    {
        type            cyclicACMI;
        value           uniform 0;
    }
    innerACMI2_blockage
    {
        type            calculated;
        value           uniform 0;
    }
    outerACMI1_couple
    {
        type            cyclicACMI;
        value           uniform 0;
    }
    outerACMI1_blockage
    {
        type            calculated;
        value           uniform 0;
    }
    outerACMI2_couple
    {
        type            cyclicACMI;
        value           uniform 0;
    }
    outerACMI2_blockage
    {
        type            calculated;
        value           uniform 0;
    }
}


// ************************************************************************* //
