/*--------------------------------*- C++ -*----------------------------------*\
  =========                 |
  \\      /  F ield         | OpenFOAM: dualFuelEngline addition to OpenFOAM v7
   \\    /   O peration     | Website:  https://github.com/StasF1/dualFuelEngine
    \\  /    A nd           | Version:  0.3-alpha
     \\/     M anipulation  |
\*---------------------------------------------------------------------------*/
FoamFile
{
    version     2.0;
    format      ascii;
    class       dictionary;
    location    "system";
    object      controlDict;
}
// * * * * * * * * * * * * * * * * * * * * * * * * * * * * * * * * * * * * * //

application     multiCompressionFoam;

startFrom       startTime;

startTime       0;

stopAt          endTime;

endTime         1e-02;

deltaT          5e-05;

writeControl    adjustableRunTime;

writeInterval   5e-05;

purgeWrite      0;

writeFormat     ascii;

writePrecision  6;

writeCompression false;

timeFormat      general;

timePrecision   6;

runTimeModifiable true;

adjustTimeStep  true;

maxCo           0.1;


// ************************************************************************* //
