/*--------------------------------*- C++ -*----------------------------------*\
  =========                 |
  \\      /  F ield         | OpenFOAM: Addition to OpenFOAM v6
   \\    /   O peration     | Website:  https://github.com/StasF1/dualFuelEngine
    \\  /    A nd           | Version:  0.2-alpha
     \\/     M anipulation  |
\*---------------------------------------------------------------------------*/
FoamFile
{
    version     2.0;
    format      ascii;
    class       volScalarField;
    object      p;
}
// * * * * * * * * * * * * * * * * * * * * * * * * * * * * * * * * * * * * * //

dimensions      [0 2 -2 0 0 0 0]; // m^2/s^2 = Pa/(kg/m^3)
								  // Air density was taken as 1.2041
internalField   uniform 0;

boundaryField
{
    // Injection
	injectionXMinus
    {
        type            fixedValue;
        value           uniform 8304.958;
    }
    injectionXPlus
    {
        type            fixedValue;
        value           uniform 8304.958;
    }
    injectionYMinus
    {
        type            fixedValue;
        value           uniform 8304.958;
    }
    injectionYPlus
    {
        type            fixedValue;
        value           uniform 8304.958;
    }
	
    // Inlet
	// ∆p_kin = ∆p/rho = 0.1(bar) / 1.2041(kg/m^3) =
	// = 10000(Pa) / 1.2041(kg/m^3) = 8304.958 m^2/s^2
	inletXMinus
    {
        type            fixedValue;
        value           uniform 8304.958;
    }
    inletXPlus
    {
        type            fixedValue;
        value           uniform 8304.958;
    }
    inletYMinus
    {
        type            fixedValue;
        value           uniform 8304.958;
    }
    inletYPlus
    {
        type            fixedValue;
        value           uniform 8304.958;
    }
	
	// Other
    outlet
    {
        type            fixedValue;
        value           uniform 0;	// атмосферное давление
    }
    valve
    {
        type            zeroGradient;
    }
    walls
    {
        type            zeroGradient;
    }
}

// ************************************************************************* //
