/*--------------------------------*- C++ -*----------------------------------*\
  =========                 |
  \\      /  F ield         | OpenFOAM: The Open Source CFD Toolbox
   \\    /   O peration     | Website:  https://openfoam.org
    \\  /    A nd           | Version:  6
     \\/     M anipulation  |
\*---------------------------------------------------------------------------*/
FoamFile
{
    version     2.0;
    format      ascii;
    class       extendedFeatureEdgeMesh;
    location    "constant/extendedFeatureEdgeMesh";
    object      walls.extendedFeatureEdgeMesh;
}
// * * * * * * * * * * * * * * * * * * * * * * * * * * * * * * * * * * * * * //

// points

64
(
(0.25 -0.25 1.75)
(0.25 0.25 1.75)
(0.25 -0.25 2.91667)
(0.25 0.25 2.91667)
(-0.25 0.25 1.75)
(-0.25 0.25 2.91667)
(-0.25 -0.25 1.75)
(-0.25 -0.25 2.91667)
(0.5 -0.5 1.75)
(-0.5 -0.5 1.75)
(-0.5 0.5 1.75)
(0.5 0.5 1.75)
(0.4 -0.5 -1.55)
(0.15 -0.5 -1.55)
(0.05 -0.5 -0.05)
(0.05 -0.5 0.05)
(0.5 -0.5 -1.75)
(0.4 -0.5 -1.75)
(-0.15 -0.5 -1.75)
(-0.15 -0.5 -1.55)
(0.15 -0.5 -1.75)
(-0.05 -0.5 -0.05)
(-0.05 -0.5 0.05)
(-0.4 -0.5 -1.55)
(-0.4 -0.5 -1.75)
(-0.5 -0.5 -1.75)
(-0.5 -0.4 -1.55)
(-0.5 -0.15 -1.55)
(-0.5 -0.05 -0.05)
(-0.5 -0.05 0.05)
(-0.5 -0.4 -1.75)
(-0.5 0.15 -1.75)
(-0.5 0.15 -1.55)
(-0.5 -0.15 -1.75)
(-0.5 0.05 -0.05)
(-0.5 0.05 0.05)
(-0.5 0.4 -1.55)
(-0.5 0.4 -1.75)
(-0.5 0.5 -1.75)
(-0.4 0.5 -1.55)
(-0.15 0.5 -1.55)
(-0.05 0.5 -0.05)
(-0.05 0.5 0.05)
(-0.4 0.5 -1.75)
(0.15 0.5 -1.75)
(0.15 0.5 -1.55)
(-0.15 0.5 -1.75)
(0.05 0.5 -0.05)
(0.05 0.5 0.05)
(0.4 0.5 -1.55)
(0.4 0.5 -1.75)
(0.5 0.5 -1.75)
(0.5 0.4 -1.55)
(0.5 0.15 -1.55)
(0.5 0.05 -0.05)
(0.5 0.05 0.05)
(0.5 0.4 -1.75)
(0.5 -0.15 -1.75)
(0.5 -0.15 -1.55)
(0.5 0.15 -1.75)
(0.5 -0.05 -0.05)
(0.5 -0.05 0.05)
(0.5 -0.4 -1.55)
(0.5 -0.4 -1.75)
)

// edges

153
(
(2 0)
(1 3)
(4 5)
(6 7)
(9 8)
(10 9)
(8 11)
(11 10)
(0 1)
(1 4)
(4 6)
(6 0)
(8 16)
(25 9)
(38 10)
(51 11)
(1 2)
(4 3)
(6 5)
(0 7)
(6 9)
(8 6)
(4 9)
(4 10)
(8 0)
(11 0)
(11 1)
(10 1)
(14 12)
(13 14)
(15 12)
(8 12)
(15 8)
(16 12)
(19 20)
(21 20)
(19 21)
(21 13)
(15 9)
(22 9)
(22 23)
(23 9)
(21 23)
(24 9)
(28 26)
(27 28)
(29 26)
(9 26)
(29 9)
(25 26)
(32 33)
(34 33)
(32 34)
(34 27)
(29 10)
(35 10)
(35 36)
(36 10)
(34 36)
(37 10)
(41 39)
(40 41)
(42 39)
(10 39)
(42 10)
(38 39)
(45 46)
(47 46)
(45 47)
(47 40)
(42 11)
(48 11)
(48 49)
(49 11)
(47 49)
(50 11)
(54 52)
(53 54)
(55 52)
(11 52)
(55 11)
(51 52)
(58 59)
(60 59)
(58 60)
(60 53)
(55 8)
(61 8)
(61 62)
(62 8)
(60 62)
(63 8)
(38 16)
(3 2)
(5 3)
(7 5)
(2 7)
(12 13)
(14 15)
(16 17)
(17 12)
(18 19)
(20 18)
(13 20)
(21 14)
(15 22)
(22 21)
(19 23)
(23 24)
(24 25)
(26 27)
(28 29)
(25 30)
(30 26)
(31 32)
(33 31)
(27 33)
(34 28)
(29 35)
(35 34)
(32 36)
(36 37)
(37 38)
(39 40)
(41 42)
(38 43)
(43 39)
(44 45)
(46 44)
(40 46)
(47 41)
(42 48)
(48 47)
(45 49)
(49 50)
(50 51)
(52 53)
(54 55)
(51 56)
(56 52)
(57 58)
(59 57)
(53 59)
(60 54)
(55 61)
(61 60)
(58 62)
(62 63)
(63 16)
(25 38)
(16 25)
(38 51)
(51 16)
)

// concaveStart mixedStart nonFeatureStart
0 0 64
// internalStart flatStart openStart multipleStart
8 16 93 153
// normals

82
(
(1 -0 0)
(0 1 0)
(-1 -0 0)
(0 -1 0)
(0 1 0)
(0 1 0)
(0 1 0)
(0 1 0)
(0 1 -0)
(0 1 0)
(0 1 0)
(0 1 0)
(0 1 0)
(0 1 0)
(0 1 0)
(1 0 0)
(1 0 0)
(1 0 0)
(1 0 -0)
(1 0 0)
(1 0 0)
(1 0 0)
(1 0 0)
(1 0 0)
(1 -0 0)
(1 0 0)
(0 -1 0)
(0 -1 0)
(0 -1 -0)
(0 -1 0)
(0 -1 0)
(0 -1 0)
(0 -1 0)
(0 -1 0)
(0 -1 0)
(0 -1 0)
(0 -1 -0)
(-1 0 0)
(-1 0 0)
(-1 0 0)
(-1 0 0)
(-1 0 0)
(-1 0 0)
(-1 0 0)
(-1 0 0)
(-1 0 0)
(-1 -0 -0)
(-1 0 0)
(0 0 -1)
(0 0 -1)
(1 0 0)
(0 1 -0)
(-1 0 0)
(0 -1 0)
(0 0 1)
(0 1 0)
(0 0 1)
(1 -0 0)
(-0 0 1)
(-1 -0 0)
(0 -0 1)
(0 -1 0)
(0 0 1)
(0 0 1)
(0 0 1)
(-0 0 1)
(0 1 -0)
(-0 1 0)
(0 1 0)
(0 1 0)
(1 0 0)
(1 0 -0)
(1 0 0)
(1 0 0)
(-0 -1 0)
(0 -1 0)
(0 -1 0)
(0 -1 0)
(-1 0 0)
(-1 0 0)
(-1 0 0)
(-1 0 0)
)

// normal volume types

82
(
0
0
0
0
0
0
0
0
0
0
0
0
0
0
0
0
0
0
0
0
0
0
0
0
0
0
0
0
0
0
0
0
0
0
0
0
0
0
0
0
0
0
0
0
0
0
0
0
0
0
0
0
0
0
0
0
0
0
0
0
0
0
0
0
0
0
0
0
0
0
0
0
0
0
0
0
0
0
0
0
0
0
)

// normalDirections

153
(
2(1 -1)
2(1 -1)
2(1 -1)
2(1 -1)
2{1}
2{1}
2{1}
2{1}
2(1 -1)
2(1 -1)
2(1 -1)
2(1 -1)
2(1 -1)
2(1 -1)
2(1 -1)
2(1 -1)
2(1 -1)
2(1 -1)
2(1 -1)
2(1 -1)
2(1 -1)
2(1 -1)
2(1 -1)
2(1 -1)
2(1 -1)
2(1 -1)
2(1 -1)
2(1 -1)
2(1 -1)
2(1 -1)
2(1 -1)
2(1 -1)
2(1 -1)
2(1 -1)
2(1 -1)
2(1 -1)
2(1 -1)
2(1 -1)
2(1 -1)
2(1 -1)
2(1 -1)
2(1 -1)
2(1 -1)
2(1 -1)
2(1 -1)
2(1 -1)
2(1 -1)
2(1 -1)
2(1 -1)
2(1 -1)
2(1 -1)
2(1 -1)
2(1 -1)
2(1 -1)
2(1 -1)
2(1 -1)
2(1 -1)
2(1 -1)
2(1 -1)
2(1 -1)
2(1 -1)
2(1 -1)
2(1 -1)
2(1 -1)
2(1 -1)
2(1 -1)
2(1 -1)
2(1 -1)
2(1 -1)
2(1 -1)
2(1 -1)
2(1 -1)
2(1 -1)
2(1 -1)
2(1 -1)
2(1 -1)
2(1 -1)
2(1 -1)
2(1 -1)
2(1 -1)
2(1 -1)
2(1 -1)
2(1 -1)
2(1 -1)
2(1 -1)
2(1 -1)
2(1 -1)
2(1 -1)
2(1 -1)
2(1 -1)
2(1 -1)
2(1 -1)
2(1 -1)
1(1)
1(1)
1(1)
1(1)
1(1)
1(1)
1(1)
1(1)
1(1)
1(1)
1(1)
1(1)
1(1)
1(1)
1(1)
1(1)
1(1)
1(1)
1(1)
1(1)
1(1)
1(1)
1(1)
1(1)
1(1)
1(1)
1(1)
1(1)
1(1)
1(1)
1(1)
1(1)
1(1)
1(1)
1(1)
1(1)
1(1)
1(1)
1(1)
1(1)
1(1)
1(1)
1(1)
1(1)
1(1)
1(1)
1(1)
1(1)
1(1)
1(1)
1(1)
1(1)
1(1)
1(1)
1(1)
1(1)
1(1)
1(1)
1(1)
1(1)
)

// edgeNormals

153
(
2(50 3)
2(0 51)
2(1 52)
2(2 53)
2(54 55)
2(56 57)
2(58 59)
2(60 61)
2(50 62)
2(51 63)
2(52 64)
2(53 65)
2(67 47)
2(14 70)
2(25 74)
2(36 78)
2(50 0)
2(51 1)
2(52 2)
2(53 3)
2(54 64)
2(54 65)
2(64 56)
2(56 63)
2(65 58)
2(58 62)
2(62 60)
2(60 63)
2(4 5)
2(4 9)
2(5 66)
2(66 67)
2(66 55)
2(67 6)
2(7 68)
2(68 8)
2(68 12)
2(8 9)
2(55 10)
2(10 69)
2(69 11)
2(69 13)
2(11 12)
2(13 14)
2(15 16)
2(15 20)
2(16 71)
2(71 70)
2(71 57)
2(70 17)
2(18 72)
2(72 19)
2(72 23)
2(19 20)
2(57 21)
2(21 73)
2(73 22)
2(73 24)
2(22 23)
2(24 25)
2(26 27)
2(26 31)
2(27 75)
2(75 74)
2(75 61)
2(74 28)
2(29 76)
2(76 30)
2(76 34)
2(30 31)
2(61 32)
2(32 77)
2(77 33)
2(77 35)
2(33 34)
2(35 36)
2(37 38)
2(37 42)
2(38 79)
2(79 78)
2(79 59)
2(78 39)
2(40 80)
2(80 41)
2(80 45)
2(41 42)
2(59 43)
2(43 81)
2(81 44)
2(81 46)
2(44 45)
2(46 47)
2(48 49)
1(0)
1(1)
1(2)
1(3)
1(4)
1(5)
1(6)
1(6)
1(7)
1(7)
1(8)
1(9)
1(10)
1(11)
1(12)
1(13)
1(14)
1(15)
1(16)
1(17)
1(17)
1(18)
1(18)
1(19)
1(20)
1(21)
1(22)
1(23)
1(24)
1(25)
1(26)
1(27)
1(28)
1(28)
1(29)
1(29)
1(30)
1(31)
1(32)
1(33)
1(34)
1(35)
1(36)
1(37)
1(38)
1(39)
1(39)
1(40)
1(40)
1(41)
1(42)
1(43)
1(44)
1(45)
1(46)
1(47)
1(48)
1(48)
1(49)
1(49)
)

// featurePointNormals

64
(
3(50 3 62)
3(0 51 62)
2(50 3)
2(0 51)
3(1 52 63)
2(1 52)
3(2 53 64)
2(2 53)
3(54 55 59)
3(54 55 57)
3(56 57 61)
3(58 59 61)
1(4)
1(4)
1(4)
1(5)
3(67 47 48)
1(6)
1(7)
1(7)
1(7)
1(68)
1(10)
1(69)
1(13)
3(14 70 48)
1(15)
1(15)
1(15)
1(16)
1(17)
1(18)
1(18)
1(18)
1(72)
1(21)
1(73)
1(24)
3(25 74 48)
1(26)
1(26)
1(26)
1(27)
1(28)
1(29)
1(29)
1(29)
1(76)
1(32)
1(77)
1(35)
3(36 78 49)
1(37)
1(37)
1(37)
1(38)
1(39)
1(40)
1(40)
1(40)
1(80)
1(43)
1(81)
1(46)
)

// featurePointEdges

64
(
6(0 19 11 24 25 8)
6(16 1 9 27 26 8)
4(16 0 93 96)
4(1 17 93 94)
6(17 2 10 22 23 9)
4(2 18 94 95)
6(18 3 11 21 20 10)
4(3 19 95 96)

11
(
21
24
6
86
87
89
91
12
31
32
4
)


11
(
20
22
5
48
47
13
43
41
39
38
4
)


11
(
23
27
7
64
63
14
59
57
55
54
5
)


11
(
25
26
7
70
71
73
75
15
79
80
6
)

6(28 30 31 33 97 100)
4(29 37 97 103)
4(28 29 98 104)
5(30 32 38 98 105)
7(33 12 92 99 148 150 152)
2(99 100)
2(101 102)
4(34 36 101 107)
4(34 35 102 103)
6(35 36 37 42 104 106)
4(39 40 105 106)
5(40 41 42 107 108)
3(43 108 109)
6(13 49 109 112 149 150)
6(44 46 47 49 110 113)
4(45 53 110 116)
4(44 45 111 117)
5(46 48 54 111 118)
2(112 113)
2(114 115)
4(50 52 114 120)
4(50 51 115 116)
6(51 52 53 58 117 119)
4(55 56 118 119)
5(56 57 58 120 121)
3(59 121 122)
7(14 65 92 122 125 149 151)
6(60 62 63 65 123 126)
4(61 69 123 129)
4(60 61 124 130)
5(62 64 70 124 131)
2(125 126)
2(127 128)
4(66 68 127 133)
4(66 67 128 129)
6(67 68 69 74 130 132)
4(71 72 131 132)
5(72 73 74 133 134)
3(75 134 135)
6(15 81 135 138 151 152)
6(76 78 79 81 136 139)
4(77 85 136 142)
4(76 77 137 143)
5(78 80 86 137 144)
2(138 139)
2(140 141)
4(82 84 140 146)
4(82 83 141 142)
6(83 84 85 90 143 145)
4(87 88 144 145)
5(88 89 90 146 147)
3(91 147 148)
)

// regionEdges

60
(
93
94
95
96
97
98
99
100
101
102
103
104
105
106
107
108
109
110
111
112
113
114
115
116
117
118
119
120
121
122
123
124
125
126
127
128
129
130
131
132
133
134
135
136
137
138
139
140
141
142
143
144
145
146
147
148
149
150
151
152
)



// ************************************************************************* //
