/*--------------------------------*- C++ -*----------------------------------*\
  =========                 |
  \\      /  F ield         | OpenFOAM: dualFuelEngline addition to OpenFOAM v7
   \\    /   O peration     | Website:  https://github.com/StasF1/dualFuelEngine
    \\  /    A nd           | Version:  0.4-alpha
     \\/     M anipulation  |
\*---------------------------------------------------------------------------*/
FoamFile
{
    version     2.0;
    format      ascii;
    class       dictionary;
    location    "system";
    object      controlDict;
}
// * * * * * * * * * * * * * * * * * * * * * * * * * * * * * * * * * * * * * //

application     rhoCentralFoam;

startFrom       startTime;

startTime       0;

stopAt          endTime;

endTime         0.65;

deltaT          2e-5;

writeControl    adjustableRunTime;

writeInterval   0.005;

purgeWrite      0;

writeFormat     ascii;

writePrecision  6;

writeCompression false;

timeFormat      general;

timePrecision   6;

runTimeModifiable true;

adjustTimeStep  true;

maxCo           0.1;

functions
{
    #includeFunc MachNo
    #includeFunc CourantNo
    #includeFunc writeObjects(e)
    #includeFunc writeCellVolumes

    mass
    {
        type            volFieldValue;
        libs            ("libfieldFunctionObjects.so");
        writeControl    timeStep;
        writeInterval   1;
        log             true;
        writeFields     false;
        operation       volIntegrate;
        fields          (rho);
    }

    volAverageFieldValues
    {
        type            volFieldValue;
        libs            ("libfieldFunctionObjects.so");
        writeControl    timeStep;
        writeInterval   1;
        log             true;
        writeFields     false;
        operation       volAverage;
        fields
        (
            p T rho e
        );
    }
}


// ************************************************************************* //
