/*--------------------------------*- C++ -*----------------------------------*\
  =========                 |
  \\      /  F ield         | OpenFOAM: The Open Source CFD Toolbox
   \\    /   O peration     | Website:  https://openfoam.org
    \\  /    A nd           | Version:  dev
     \\/     M anipulation  |
\*---------------------------------------------------------------------------*/
FoamFile
{
    version     2.0;
    format      ascii;
    class       dictionary;
    location    "system";
    object      setFieldsDict;
}
// * * * * * * * * * * * * * * * * * * * * * * * * * * * * * * * * * * * * * //

R               0.35; // Cylinder bore radius

chS             3.15; // Cylinder Z size + chamfer size

inlH            0.25; // Inlet port height


defaultFieldValues // inlet ports
(
    volScalarFieldValue p 0.3102e+05
    volScalarFieldValue T 332
    volScalarFieldValue alphaAir 0
    volScalarFieldValue alphaGas 0
);

regions
(
    cylinderToCell // inlet ports
    {
        p1 (0 0 -5); p2 (0 0 $inlH);
        radius 10;
        fieldValues
        (
            volScalarFieldValue alphaAir 1
        );
    }
    cylinderToCell // outlet pipe
    {
        p1 (0 0 $chS); p2 (0 0 10);
        radius 5;
        fieldValues
        (
            volScalarFieldValue p 0.23e+05 // 0.23e+06
            volScalarFieldValue T 350 // 769.3
        );
    }
    cylinderToCell // engine stroke volume
    {
        p1 (0 0 -5); p2 (0 0 $chS);
        radius $R;
        fieldValues
        (
            volScalarFieldValue p 1e+05 // 1e+06
            volScalarFieldValue T 380 // 850
        );
    }
);


// ************************************************************************* //
