/*--------------------------------*- C++ -*----------------------------------*\
  =========                 |
  \\      /  F ield         | OpenFOAM: dualFuelEngline addition to OpenFOAM v7
   \\    /   O peration     | Website:  https://github.com/StasF1/dualFuelEngine
    \\  /    A nd           | Version:  0.4-alpha
     \\/     M anipulation  |
\*---------------------------------------------------------------------------*/
FoamFile
{
    version     2.0;
    format      ascii;
    class       dictionary;
    location    "system";
    object      controlDict;
}
// * * * * * * * * * * * * * * * * * * * * * * * * * * * * * * * * * * * * * //

application     rhoPimpleFoam; // moveMesh \ rhoPimpleFoam

startFrom       startTime;

startTime       0;

stopAt          endTime;

endTime         0.48;

deltaT          0.0009; // 0.009 \ 0.0009

writeControl    adjustableRunTime;

writeInterval   0.0018;

purgeWrite      0;

writeFormat     ascii;

writePrecision  6;

writeCompression false;

timeFormat      general;

timePrecision   6;

runTimeModifiable true;

adjustTimeStep  true;

maxCo           1;

functions
{
    #includeFunc        residuals //$ foamMonitor -l postProcessing/residuals/0/residuals.dat

    libs                ("libfieldFunctionObjects.so");
    Ma
    {
        type            MachNo;
        executeControl  writeTime;
        writeControl    writeTime;
    }
}


// ************************************************************************* //
