/*--------------------------------*- C++ -*----------------------------------*\
  =========                 |
  \\      /  F ield         | OpenFOAM: Addition to OpenFOAM v6
   \\    /   O peration     | Website:  https://github.com/StasF1/dualFuelEngine
    \\  /    A nd           | Version:  0.3-alpha
     \\/     M anipulation  |
\*---------------------------------------------------------------------------*/
FoamFile
{
    version     2.0;
    format      ascii;
    class       volScalarField;
    object      alphaAir;
}
// * * * * * * * * * * * * * * * * * * * * * * * * * * * * * * * * * * * * * //

dimensions              [1 -3 0 0 0 0 0]; // kg/m^3

internalField           uniform 1.160; // 1e05/287.3/300 = 1.16022740457129597401

boundaryField
{
    inlet
    {
        type            codedFixedValue;
        value           uniform 1.508; // 1.508*287.3*300 = 129974.52
        redirectType    rho;
        code
        #{
            #include "../../constant/transportProperties.H" /* get variables */
            #include "../../../../../solvers/utilities/codedFixedValueBC/rho.C"
        #};
    }
    
    outlet
    {
        type            zeroGradient;
    }
    
    walls
    {
        type            zeroGradient;
    }
}

// ************************************************************************* //
