/*--------------------------------*- C++ -*----------------------------------*\
  =========                 |
  \\      /  F ield         | OpenFOAM: Addition to OpenFOAM v6
   \\    /   O peration     | Website:  https://github.com/StasF1/dualFuelEngine
    \\  /    A nd           | Version:  0.3-alpha
     \\/     M anipulation  |
\*---------------------------------------------------------------------------*/
FoamFile
{
    version     2.0;
    format      ascii;
    class       volScalarField;
    object      T;
}
// * * * * * * * * * * * * * * * * * * * * * * * * * * * * * * * * * * * * * //

dimensions      [0 0 0 1 0 0 0]; // K

internalField   uniform 850;

boundaryField
{
    inlet
    {
        type            fixedValue;
        value           750; //$internalField; // 332
    }

    outlet
    {
        type            inletOutlet;
        inletValue      uniform 764;
        value           $inletValue;
    }

    walls
    {
        type            zeroGradient;
    }
}

// ************************************************************************* //