/*--------------------------------*- C++ -*----------------------------------*\
  =========                 |
  \\      /  F ield         | OpenFOAM: Addition to OpenFOAM v6
   \\    /   O peration     | Website:  https://github.com/StasF1/dualFuelEngine
    \\  /    A nd           | Version:  0.3-alpha
     \\/     M anipulation  |
\*---------------------------------------------------------------------------*/
FoamFile
{
    version     2.0;
    format      ascii;
    class       volVectorField;
    object      U;
}
// * * * * * * * * * * * * * * * * * * * * * * * * * * * * * * * * * * * * * //

dimensions      		[0 1 -1 0 0 0 0]; // [kg m s K kg-mol cd]

internalField   		uniform (0 0 0);
	
boundaryField
{
	inlet
    {
        type            uniformFixedValue;
        uniformValue    constant (0 200 0);
	}
	
    outlet
    {
		type            zeroGradient;
    }
	
	walls
    {
        type            slip;
    }
}

// ************************************************************************* //