/*--------------------------------*- C++ -*----------------------------------*\
  =========                 |
  \\      /  F ield         | OpenFOAM: Addition to OpenFOAM v6
   \\    /   O peration     | Website:  https://github.com/StasF1/dualFuelEngine
    \\  /    A nd           | Version:  0.3-alpha
     \\/     M anipulation  |
\*---------------------------------------------------------------------------*/
FoamFile
{
    version     2.0;
    format      ascii;
    class       volVectorField;
    object      U;
}
// * * * * * * * * * * * * * * * * * * * * * * * * * * * * * * * * * * * * * //

dimensions              [0 1 -1 0 0 0 0]; // [kg m s K kg-mol cd]

internalField           uniform (0 0 0);
    
boundaryField
{
    inlet
    {
        type            codedFixedValue;
        value           uniform (0 150 0);
        redirectType    U;
        code
        #{
            #include "../../constant/transportProperties.H" /* get variables */
            #include "../../../../../solvers/utilities/codedFixedValueBC/U.C"
            
            Info << "Calculated BC:  p = " << p << endl;
        #};
    }

    outlet
    {
        type            slip;
    }

    walls
    {
        type            slip;
    }
}

// ************************************************************************* //