/*--------------------------------*- C++ -*----------------------------------*\
  =========                 |
  \\      /  F ield         | OpenFOAM: Addition to OpenFOAM v6
   \\    /   O peration     | Website:  https://github.com/StasF1/dualFuelEngine
    \\  /    A nd           | Version:  0.3-alpha
     \\/     M anipulation  |
\*---------------------------------------------------------------------------*/
FoamFile
{
    version     2.0;
    format      ascii;
    class       volVectorField;
    object      U;
}
// * * * * * * * * * * * * * * * * * * * * * * * * * * * * * * * * * * * * * //

dimensions              [0 1 -1 0 0 0 0]; // [kg m s K kg-mol cd]

internalField           uniform (0 0 0);

boundaryField
{
    inlet
    {
        type            codedFixedValue;
        value           uniform (0 200 0);
        redirectType    U;
        code
        #{
            vector directionU(0, 1, 0);
            #include "../../constant/transportProperties.H"
            #include "../../../../../solvers/utilities/codedFixedValueBC/U.C"
            
            Info << "p = " << patch().lookupPatchField<volScalarField, scalar>("p")
                 << "gAverage(p) = " << p
                 << endl;
        #};
    }

    outlet
    {
        type            zeroGradient;
    }

    walls
    {
        type            slip;
    }
}

// ************************************************************************* //