/*--------------------------------*- C++ -*----------------------------------*\
  =========                 |
  \\      /  F ield         | OpenFOAM: dualFuelEngine addition to OpenFOAM v8
   \\    /   O peration     | Website:  https://github.com/StasF1/dualFuelEngine
    \\  /    A nd           | Version:  0.4-alpha
     \\/     M anipulation  |
\*---------------------------------------------------------------------------*/
FoamFile
{
    version     2.0;
    format      ascii;
    class       dictionary;
    location    "system";
    object      setFieldsDict;
}
// * * * * * * * * * * * * * * * * * * * * * * * * * * * * * * * * * * * * * //

R               0.35; // Cylinder bore radius

chS             2.995; // Cylinder stroke, clearance & chamfer size

inlH            0.192; // Inlet port height


defaultFieldValues // inlet port
(
    volScalarFieldValue p 0.3102e+06
    volScalarFieldValue T 332
    // volScalarFieldValue alphaAir 1
    // volScalarFieldValue alphaGas 0
);

regions
(
    cylinderToCell // engine stroke volume
    {
        p1 (0 0 -10); p2 (0 0 $chS);
        radius $R;
        fieldValues
        (
            volScalarFieldValue p 1.442e6
            volScalarFieldValue T 1208.8
            // volScalarFieldValue alphaAir 0
        );
    }
    cylinderToCell // outlet pipe
    {
        p1 (0 0 $chS); p2 (0 0 10);
        radius 5;
        fieldValues
        (
            volScalarFieldValue p 0.25e+06
            volScalarFieldValue T 800
            // volScalarFieldValue alphaAir 0
        );
    }
);


// ************************************************************************* //
